Initialize SIGNATURE TABLE
ST_SET: 1
ST_WAY: 256
ST_TAG_BIT: 16
ST_TAG_MASK: ffff

Initialize PATTERN TABLE
PT_SET: 512
PT_WAY: 4
SIG_DELTA_BIT: 7
C_SIG_BIT: 4
C_DELTA_BIT: 4

Initialize PREFETCH FILTER
FILTER_SET: 1024

Initialize PERCEPTRON
PERC_ENTRIES: 4096
PERC_FEATURES: 9
Initialize SIGNATURE TABLE
ST_SET: 1
ST_WAY: 256
ST_TAG_BIT: 16
ST_TAG_MASK: ffff

Initialize PATTERN TABLE
PT_SET: 512
PT_WAY: 4
SIG_DELTA_BIT: 7
C_SIG_BIT: 4
C_DELTA_BIT: 4

Initialize PREFETCH FILTER
FILTER_SET: 1024

Initialize PERCEPTRON
PERC_ENTRIES: 4096
PERC_FEATURES: 9

*** ChampSim Multicore Out-of-Order Simulator ***

Warmup Instructions: 50000000
Simulation Instructions: 200000000
Number of CPUs: 1
LLC sets: 2048
LLC ways: 16
L0D sets: 16
L0D ways: 2
ROB size: 352
LQ size: 128
SQ size: 72
Secure Berti: OFF
Berti: OFF
Berti Fill: OFF
On commit prefetching: ON
Hit-based filter: OFF
Time-guarding: ON
Free-slotting: ON
Leap-frogging: ON
Train prefetcher on L0D bypass: OFF
No translation penalty for prefetchers: OFF
Prefetch to L0D only: OFF
Prefetch to L1D only: OFF
Clean evictions: ON
Commit loads: ON
Commit write: ON
Fill commit loads to L2C, LLC: ON
DRAM IO FREQUENCY: 6400
ROB SIZE: 352
Off-chip DRAM Size: 4096 MB Channels: 1 Width: 64-bit Data Rate: 6400 MT/s
CPU 0 runs /home/sumon/secure_berti/GhostMinion/../../traces/spec/654.roms_s-294B.champsimtrace.xz
.xz
BTB has LRU replacement policy
ITLB has LRU replacement policy
DTLB has LRU replacement policy
STLB has LRU replacement policy
L1I has LRU replacement policy
L0D has LRU replacement policy
PERC_ENTRIES: 4096
L1D has LRU replacement policy
PERC_ENTRIES: 4096
L2C has LRU replacement policy
LLC has LRU replacement policy
Heartbeat CPU 0 instructions: 10000001 cycles: 3476537 heartbeat IPC: 2.87643 cumulative IPC: 2.87643 (Simulation time: 0 hr 2 min 19 sec) 
Heartbeat CPU 0 instructions: 20000000 cycles: 6952791 heartbeat IPC: 2.87666 cumulative IPC: 2.87654 (Simulation time: 0 hr 4 min 20 sec) 
Heartbeat CPU 0 instructions: 30000003 cycles: 10428971 heartbeat IPC: 2.87672 cumulative IPC: 2.8766 (Simulation time: 0 hr 6 min 22 sec) 
Heartbeat CPU 0 instructions: 40000001 cycles: 13904798 heartbeat IPC: 2.87701 cumulative IPC: 2.8767 (Simulation time: 0 hr 8 min 24 sec) 
Heartbeat CPU 0 instructions: 50000002 cycles: 17380549 heartbeat IPC: 2.87708 cumulative IPC: 2.87678 (Simulation time: 0 hr 10 min 26 sec) 

Warmup complete CPU 0 instructions: 50000002 cycles: 17380549 (Simulation time: 0 hr 10 min 26 sec) 

Heartbeat CPU 0 instructions: 60000002 cycles: 27185473 heartbeat IPC: 1.0199 cumulative IPC: 1.0199 (Simulation time: 0 hr 12 min 42 sec) 
Heartbeat CPU 0 instructions: 70000001 cycles: 36988892 heartbeat IPC: 1.02005 cumulative IPC: 1.01997 (Simulation time: 0 hr 14 min 58 sec) 
Heartbeat CPU 0 instructions: 80000001 cycles: 46799057 heartbeat IPC: 1.01935 cumulative IPC: 1.01977 (Simulation time: 0 hr 17 min 14 sec) 
Heartbeat CPU 0 instructions: 90000002 cycles: 56615286 heartbeat IPC: 1.01872 cumulative IPC: 1.0195 (Simulation time: 0 hr 19 min 30 sec) 
Heartbeat CPU 0 instructions: 100000001 cycles: 66416655 heartbeat IPC: 1.02027 cumulative IPC: 1.01966 (Simulation time: 0 hr 21 min 45 sec) 
Heartbeat CPU 0 instructions: 110000000 cycles: 76240764 heartbeat IPC: 1.0179 cumulative IPC: 1.01936 (Simulation time: 0 hr 24 min 1 sec) 
Heartbeat CPU 0 instructions: 120000002 cycles: 86054664 heartbeat IPC: 1.01896 cumulative IPC: 1.01931 (Simulation time: 0 hr 26 min 17 sec) 
Heartbeat CPU 0 instructions: 130000001 cycles: 95863421 heartbeat IPC: 1.0195 cumulative IPC: 1.01933 (Simulation time: 0 hr 28 min 33 sec) 
Heartbeat CPU 0 instructions: 140000001 cycles: 105669475 heartbeat IPC: 1.01978 cumulative IPC: 1.01938 (Simulation time: 0 hr 30 min 48 sec) 
Heartbeat CPU 0 instructions: 150000001 cycles: 115486329 heartbeat IPC: 1.01866 cumulative IPC: 1.01931 (Simulation time: 0 hr 33 min 3 sec) 
Heartbeat CPU 0 instructions: 160000003 cycles: 125291494 heartbeat IPC: 1.01987 cumulative IPC: 1.01936 (Simulation time: 0 hr 35 min 20 sec) 
Heartbeat CPU 0 instructions: 170000000 cycles: 135098974 heartbeat IPC: 1.01963 cumulative IPC: 1.01938 (Simulation time: 0 hr 37 min 37 sec) 
Heartbeat CPU 0 instructions: 180000000 cycles: 144903144 heartbeat IPC: 1.01997 cumulative IPC: 1.01943 (Simulation time: 0 hr 39 min 54 sec) 
Heartbeat CPU 0 instructions: 190000002 cycles: 154720721 heartbeat IPC: 1.01858 cumulative IPC: 1.01937 (Simulation time: 0 hr 42 min 11 sec) 
Heartbeat CPU 0 instructions: 200000002 cycles: 164536863 heartbeat IPC: 1.01873 cumulative IPC: 1.01932 (Simulation time: 0 hr 44 min 27 sec) 
Heartbeat CPU 0 instructions: 210000002 cycles: 174347238 heartbeat IPC: 1.01933 cumulative IPC: 1.01932 (Simulation time: 0 hr 46 min 43 sec) 
Heartbeat CPU 0 instructions: 220000000 cycles: 184165513 heartbeat IPC: 1.01851 cumulative IPC: 1.01928 (Simulation time: 0 hr 48 min 59 sec) 
Heartbeat CPU 0 instructions: 230000002 cycles: 193984274 heartbeat IPC: 1.01846 cumulative IPC: 1.01923 (Simulation time: 0 hr 51 min 15 sec) 
Heartbeat CPU 0 instructions: 240000002 cycles: 203800799 heartbeat IPC: 1.01869 cumulative IPC: 1.0192 (Simulation time: 0 hr 53 min 31 sec) 
Heartbeat CPU 0 instructions: 250000001 cycles: 213611747 heartbeat IPC: 1.01927 cumulative IPC: 1.01921 (Simulation time: 0 hr 55 min 46 sec) 
Finished CPU 0 instructions: 200000003 cycles: 196231199 cumulative IPC: 1.01921 (Simulation time: 0 hr 55 min 46 sec) 
 Instruction ID: 250000056

ChampSim completed all CPUs

Region of Interest Statistics

CPU 0 cumulative IPC: 1.01921 instructions: 200000003 cycles: 196231199
ITLB SPEC fills:          0  NON-SPEC fills:          0
ITLB Test counter :          0
ITLB Leapfrog:          0
ITLB MSHR merge:          0
ITLB TOTAL     ACCESS:   26853851  HIT:   26853851  MISS:          0  HIT %:        100  MISS %:          0   MPKI: 0
ITLB LOAD TRANSLATION NON_SPEC    ACCESS:   26853851  HIT:   26853851  MISS:          0  HIT %:        100  MISS %:          0   MPKI: 0
ITLB PREFETCH  REQUESTED:          0  ISSUED:          0  USEFUL:          0  USELESS:          0
ITLB USEFUL LOAD PREFETCHES:          0 PREFETCH ISSUED TO LOWER LEVEL:          0  ACCURACY: -nan
ITLB TIMELY PREFETCHES:          0 LATE PREFETCHES: 0 DROPPED PREFETCHES: 0
ITLB COMMIT LATE PREFETCHES: 0 NORMAL LATE: 0 MISSED OPPORTUNITY: 0 UNCOVERED: 0
ITLB PREFETCHES SAME FILL-ORIGIN LEVEL: 0 DIFFERENT FILL-ORIGIN LEVEL: 0
ITLB AVERAGE MISS LATENCY: -nan cycles
ITLB AVERAGE MISS LATENCY LOAD: -nan cycles
ITLB AVERAGE MISS LATENCY PREFETCH: -nan cycles
ITLB AVERAGE MSHR OCCUPANCY: 0
ITLB MSHR FULL: 0
ITLB RQ	ACCESS:   33485973	FORWARD:          0	MERGED:    6632122	TO_CACHE:   26853851

DTLB SPEC fills:          0  NON-SPEC fills:          0
DTLB Test counter :          0
DTLB Leapfrog:          0
DTLB MSHR merge:          0
DTLB TOTAL     ACCESS:   58048574  HIT:   57960983  MISS:      87591  HIT %:    99.8491  MISS %:   0.150893   MPKI: 0.437955
DTLB LOAD TRANSLATION NON_SPEC    ACCESS:   58048574  HIT:   57960983  MISS:      87591  HIT %:    99.8491  MISS %:   0.150893   MPKI: 0.437955
DTLB PREFETCH  REQUESTED:          0  ISSUED:          0  USEFUL:          0  USELESS:          0
DTLB USEFUL LOAD PREFETCHES:          0 PREFETCH ISSUED TO LOWER LEVEL:          0  ACCURACY: -nan
DTLB TIMELY PREFETCHES:          0 LATE PREFETCHES: 0 DROPPED PREFETCHES: 0
DTLB COMMIT LATE PREFETCHES: 0 NORMAL LATE: 0 MISSED OPPORTUNITY: 0 UNCOVERED: 0
DTLB PREFETCHES SAME FILL-ORIGIN LEVEL: 0 DIFFERENT FILL-ORIGIN LEVEL: 0
DTLB AVERAGE MISS LATENCY: 424.728 cycles
DTLB AVERAGE MISS LATENCY LOAD: -nan cycles
DTLB AVERAGE MISS LATENCY PREFETCH: -nan cycles
DTLB AVERAGE MSHR OCCUPANCY: 0.0176878
DTLB MSHR FULL: 8.43946e-07
DTLB RQ	ACCESS:   62224671	FORWARD:          0	MERGED:    4164079	TO_CACHE:   58060592

STLB SPEC fills:          0  NON-SPEC fills:          0
STLB Test counter :          0
STLB Leapfrog:          0
STLB MSHR merge:          0
STLB TOTAL     ACCESS:      87591  HIT:      21835  MISS:      65756  HIT %:    24.9284  MISS %:    75.0716   MPKI: 0.32878
STLB LOAD TRANSLATION NON_SPEC    ACCESS:      87591  HIT:      21835  MISS:      65756  HIT %:    24.9284  MISS %:    75.0716   MPKI: 0.32878
STLB PREFETCH  REQUESTED:          0  ISSUED:          0  USEFUL:          0  USELESS:          0
STLB USEFUL LOAD PREFETCHES:          0 PREFETCH ISSUED TO LOWER LEVEL:          0  ACCURACY: -nan
STLB TIMELY PREFETCHES:          0 LATE PREFETCHES: 0 DROPPED PREFETCHES: 0
STLB COMMIT LATE PREFETCHES: 0 NORMAL LATE: 0 MISSED OPPORTUNITY: 0 UNCOVERED: 0
STLB PREFETCHES SAME FILL-ORIGIN LEVEL: 0 DIFFERENT FILL-ORIGIN LEVEL: 0
STLB AVERAGE MISS LATENCY: 553.525 cycles
STLB AVERAGE MISS LATENCY LOAD: -nan cycles
STLB AVERAGE MISS LATENCY PREFETCH: -nan cycles
STLB AVERAGE MSHR OCCUPANCY: 1.1533
STLB MSHR FULL: 0
STLB RQ	ACCESS:      87591	FORWARD:          0	MERGED:          0	TO_CACHE:      87591

STLB Hit, L1D data hit: 0
STLB Hit, L2C data hit: 0
STLB Hit, LLC data hit: 0
STLB Hit, LLC data miss: 0
STLB STLB hints to L2: 0
L0D SPEC fills:   34596995  NON-SPEC fills:          0
L0D TimeGuard Request with older TS:    1637100 Restricted eviction:    2363184 read:      92832
L0D Test counter :          0
L0D Leapfrog:          0
L0D MSHR merge:    3207291
L0D TOTAL     ACCESS:   52216692  HIT:    8066283  MISS:   44150409  HIT %:    15.4477  MISS %:    84.5523   MPKI: 220.752
L0D LOAD      TOTAL       ACCESS:   52216692  HIT:    8066283  MISS:   44150409  HIT %:    15.4477  MISS %:    84.5523   MPKI: 220.752
L0D LOAD      NON_SPEC    ACCESS:    7366749  HIT:     176513  MISS:    7190236  HIT %:    2.39608  MISS %:    97.6039   MPKI: 35.9512
L0D LOAD      SPEC        ACCESS:   44849943  HIT:    7889770  MISS:   36960173  HIT %:    17.5915  MISS %:    82.4085   MPKI: 184.801
L0D PREFETCH  REQUESTED:          0  ISSUED:          0  USEFUL:          0  USELESS:          0
L0D USEFUL LOAD PREFETCHES:          0 PREFETCH ISSUED TO LOWER LEVEL:          0  ACCURACY: -nan
L0D TIMELY PREFETCHES:          0 LATE PREFETCHES: 0 DROPPED PREFETCHES: 0
L0D COMMIT LATE PREFETCHES: 0 NORMAL LATE: 0 MISSED OPPORTUNITY: 0 UNCOVERED: 0
L0D PREFETCHES SAME FILL-ORIGIN LEVEL: 0 DIFFERENT FILL-ORIGIN LEVEL: 0
L0D AVERAGE MISS LATENCY: 6.36282 cycles
L0D AVERAGE MISS LATENCY LOAD: 6.36282 cycles
L0D AVERAGE MISS LATENCY PREFETCH: -nan cycles
L0D AVERAGE MSHR OCCUPANCY: 1.5095
L0D MSHR FULL: 0.00010246
L0D RQ	ACCESS:   76447433	FORWARD:          0	MERGED:   21023453	TO_CACHE:   55423980
L0D WQ	ACCESS:    6800691	FORWARD:          0	MERGED:          0	TO_CACHE:    6800691

L1D SPEC fills:          0  NON-SPEC fills:      85133
L1D Test counter :          0
L1D Leapfrog:          0
L1D MSHR merge:      64527
L1D TOTAL     ACCESS:   98382614  HIT:   93119839  MISS:    5262775  HIT %:    94.6507  MISS %:    5.34929   MPKI: 26.3139
L1D LOAD      TOTAL       ACCESS:   44085881  HIT:   41324343  MISS:    2761538  HIT %:     93.736  MISS %:      6.264   MPKI: 13.8077
L1D LOAD      NON_SPEC    ACCESS:    7190066  HIT:    7104933  MISS:      85133  HIT %:     98.816  MISS %:    1.18404   MPKI: 0.425665
L1D LOAD      SPEC        ACCESS:   36895815  HIT:   34219410  MISS:    2676405  HIT %:     92.746  MISS %:    7.25395   MPKI: 13.382
L1D RFO       NON_SPEC    ACCESS:    5480971  HIT:    5461513  MISS:      19458  HIT %:     99.645  MISS %:    0.35501   MPKI: 0.09729
L1D COMMIT LOAD NON_SPEC    ACCESS:   15292851  HIT:   15090074  MISS:     202777  HIT %:     98.674  MISS %:    1.32596   MPKI: 1.01388
L1D COMMIT WRITE NON_SPEC    ACCESS:   33522911  HIT:   31243909  MISS:    2279002  HIT %:    93.2017  MISS %:    6.79834   MPKI: 11.395
L1D PREFETCH  REQUESTED:          0  ISSUED:          0  USEFUL:          0  USELESS:          0
L1D USEFUL LOAD PREFETCHES:          0 PREFETCH ISSUED TO LOWER LEVEL:          0  ACCURACY: -nan
L1D TIMELY PREFETCHES:          0 LATE PREFETCHES: 0 DROPPED PREFETCHES: 0
L1D COMMIT LATE PREFETCHES: 0 NORMAL LATE: 0 MISSED OPPORTUNITY: 0 UNCOVERED: 2798362
L1D PREFETCHES SAME FILL-ORIGIN LEVEL: 0 DIFFERENT FILL-ORIGIN LEVEL: 0
L1D AVERAGE MISS LATENCY: 12.2484 cycles
L1D AVERAGE MISS LATENCY LOAD: 19.4051 cycles
L1D AVERAGE MISS LATENCY PREFETCH: -nan cycles
L1D AVERAGE MSHR OCCUPANCY: 0.220304
L1D MSHR FULL: 0.000292339
L1D RQ	ACCESS:   79674803	FORWARD:          0	MERGED:   20192324	TO_CACHE:   59482479
L1D WQ	ACCESS:   40316511	FORWARD:          0	MERGED:    1217499	TO_CACHE:   39099012

L1D UNIQUE REGIONS ACCESSED: 0
L1D REGIONS CONFLICTS: 0
L1D Cross Page Prefetch Requests: 0
L1D Same Page Prefetch Requests: 0
L1D ROI Sum of L1D PQ occupancy: 0
L1D PREFETCHES PUSHED FROM L2C: 0
L1I SPEC fills:          0  NON-SPEC fills:          0
L1I Test counter :          0
L1I Leapfrog:          0
L1I MSHR merge:          0
L1I TOTAL     ACCESS:   33485972  HIT:   33485972  MISS:          0  HIT %:        100  MISS %:          0   MPKI: 0
L1I LOAD      TOTAL       ACCESS:   33485972  HIT:   33485972  MISS:          0  HIT %:        100  MISS %:          0   MPKI: 0
L1I LOAD      NON_SPEC    ACCESS:   33485972  HIT:   33485972  MISS:          0  HIT %:        100  MISS %:          0   MPKI: 0
L1I PREFETCH  REQUESTED:          0  ISSUED:          0  USEFUL:          0  USELESS:          0
L1I USEFUL LOAD PREFETCHES:          0 PREFETCH ISSUED TO LOWER LEVEL:          0  ACCURACY: -nan
L1I TIMELY PREFETCHES:          0 LATE PREFETCHES: 0 DROPPED PREFETCHES: 0
L1I COMMIT LATE PREFETCHES: 0 NORMAL LATE: 0 MISSED OPPORTUNITY: 0 UNCOVERED: 0
L1I PREFETCHES SAME FILL-ORIGIN LEVEL: 0 DIFFERENT FILL-ORIGIN LEVEL: 0
L1I AVERAGE MISS LATENCY: -nan cycles
L1I AVERAGE MISS LATENCY LOAD: -nan cycles
L1I AVERAGE MISS LATENCY PREFETCH: -nan cycles
L1I AVERAGE MSHR OCCUPANCY: 0
L1I MSHR FULL: 0
L1I RQ	ACCESS:   53614708	FORWARD:          0	MERGED:   20128735	TO_CACHE:   33485973

BTB SPEC fills:          0  NON-SPEC fills:          0
BTB Test counter :          0
BTB Leapfrog:          0
BTB MSHR merge:          0
BTB TOTAL     ACCESS:   10024820  HIT:   10024809  MISS:         11  HIT %:    99.9999  MISS %: 0.000109728   MPKI: 5.5e-05
BTB BRANCH_DIRECT_JUMP	ACCESS:        162  HIT:        161  MISS:          1
BTB BRANCH_INDIRECT	ACCESS:          0  HIT:          0  MISS:          0
BTB BRANCH_CONDITIONAL	ACCESS:   10024334  HIT:   10024326  MISS:          8
BTB BRANCH_DIRECT_CALL	ACCESS:        162  HIT:        161  MISS:          1
BTB BRANCH_INDIRECT_CALL	ACCESS:          0  HIT:          0  MISS:          0
BTB BRANCH_RETURN	ACCESS:        162  HIT:        161  MISS:          1
BTB BRANCH_OTHER ACCESS:          0  HIT:          0  MISS:          0

L2C SPEC fills:          0  NON-SPEC fills:       3325
L2C Test counter :          0
L2C Leapfrog:          0
L2C MSHR merge:       6545
L2C TOTAL     ACCESS:   10735400  HIT:    7705153  MISS:    3030247  HIT %:    71.7733  MISS %:    28.2267   MPKI: 15.1512
L2C LOAD      TOTAL       ACCESS:    2761342  HIT:    2614445  MISS:     146897  HIT %:    94.6802  MISS %:    5.31977   MPKI: 0.734485
L2C LOAD      NON_SPEC    ACCESS:      84952  HIT:      81627  MISS:       3325  HIT %:     96.086  MISS %:    3.91397   MPKI: 0.016625
L2C LOAD      SPEC        ACCESS:    2676390  HIT:    2532818  MISS:     143572  HIT %:    94.6356  MISS %:    5.36439   MPKI: 0.71786
L2C RFO       NON_SPEC    ACCESS:      19458  HIT:       2200  MISS:      17258  HIT %:    11.3064  MISS %:    88.6936   MPKI: 0.08629
L2C PREFETCH  NON_SPEC    ACCESS:    4853532  HIT:    2153940  MISS:    2699592  HIT %:    44.3788  MISS %:    55.6212   MPKI: 13.498
L2C WRITEBACK NON_SPEC    ACCESS:      28975  HIT:      28302  MISS:        673  HIT %:    97.6773  MISS %:    2.32269   MPKI: 0.003365
L2C CLEAN_EVICTION NON_SPEC    ACCESS:    2540817  HIT:    2434448  MISS:     106369  HIT %:    95.8136  MISS %:    4.18641   MPKI: 0.531845
L2C COMMIT LOAD NON_SPEC    ACCESS:     202755  HIT:     198140  MISS:       4615  HIT %:    97.7239  MISS %:    2.27615   MPKI: 0.023075
L2C LOAD TRANSLATION NON_SPEC    ACCESS:     328521  HIT:     273678  MISS:      54843  HIT %:    83.3061  MISS %:    16.6939   MPKI: 0.274215
L2C PREFETCH  REQUESTED:    4873935  ISSUED:    4873911  USEFUL:    2406178  USELESS:     293411
L2C USEFUL LOAD PREFETCHES:    2406178 PREFETCH ISSUED TO LOWER LEVEL:    2707549  ACCURACY: 88.8692
L2C TIMELY PREFETCHES:    2406178 LATE PREFETCHES: 7691 DROPPED PREFETCHES: 0
L2C COMMIT LATE PREFETCHES: 1107 NORMAL LATE: 7845 MISSED OPPORTUNITY: 6665 UNCOVERED: 132426
L2C PREFETCHES SAME FILL-ORIGIN LEVEL: 2707283 DIFFERENT FILL-ORIGIN LEVEL: 266
L2C AVERAGE MISS LATENCY: 183.095 cycles
L2C AVERAGE MISS LATENCY LOAD: 154.247 cycles
L2C AVERAGE MISS LATENCY PREFETCH: 192.431 cycles
L2C AVERAGE MSHR OCCUPANCY: 2.10774
L2C MSHR FULL: 0
L2C RQ	ACCESS:    3312294	FORWARD:          0	MERGED:          0	TO_CACHE:    3312076
L2C WQ	ACCESS:    2569792	FORWARD:        742	MERGED:          0	TO_CACHE:    2569792
L2C PQ	ACCESS:    4873911	FORWARD:          0	MERGED:       6013	TO_CACHE:    4867374

L2C Instructions Evicting Data 0
L2C Translations Evicting Data 54009
L2C Data Evicting Data 2673422
L2C Instructions Evicting Instructions 0
L2C Translations Evicting Instructions 0
L2C Data Evicting Instructions 0
L2C Instructions Evicting Translations 0
L2C Translations Evicting Translations 834
L2C Data Evicting Translations 51368
L2C Dense regions hint from L2: 0
PSCL5 SPEC fills:          0  NON-SPEC fills:          0
PSCL5 Test counter :          0
PSCL5 Leapfrog:          0
PSCL5 MSHR merge:          0
PSCL5 TOTAL     ACCESS:          0  HIT:          0  MISS:          0  HIT %:       -nan  MISS %:       -nan   MPKI: 0
PSCL5 PREFETCH  REQUESTED:          0  ISSUED:          0  USEFUL:          0  USELESS:          0
PSCL5 USEFUL LOAD PREFETCHES:          0 PREFETCH ISSUED TO LOWER LEVEL:          0  ACCURACY: -nan
PSCL5 TIMELY PREFETCHES:          0 LATE PREFETCHES: 0 DROPPED PREFETCHES: 0
PSCL5 COMMIT LATE PREFETCHES: 0 NORMAL LATE: 0 MISSED OPPORTUNITY: 0 UNCOVERED: 0
PSCL5 PREFETCHES SAME FILL-ORIGIN LEVEL: 0 DIFFERENT FILL-ORIGIN LEVEL: 0

PSCL4 SPEC fills:          0  NON-SPEC fills:          0
PSCL4 Test counter :          0
PSCL4 Leapfrog:          0
PSCL4 MSHR merge:          0
PSCL4 TOTAL     ACCESS:          0  HIT:          0  MISS:          0  HIT %:       -nan  MISS %:       -nan   MPKI: 0
PSCL4 PREFETCH  REQUESTED:          0  ISSUED:          0  USEFUL:          0  USELESS:          0
PSCL4 USEFUL LOAD PREFETCHES:          0 PREFETCH ISSUED TO LOWER LEVEL:          0  ACCURACY: -nan
PSCL4 TIMELY PREFETCHES:          0 LATE PREFETCHES: 0 DROPPED PREFETCHES: 0
PSCL4 COMMIT LATE PREFETCHES: 0 NORMAL LATE: 0 MISSED OPPORTUNITY: 0 UNCOVERED: 0
PSCL4 PREFETCHES SAME FILL-ORIGIN LEVEL: 0 DIFFERENT FILL-ORIGIN LEVEL: 0

PSCL3 SPEC fills:          0  NON-SPEC fills:          0
PSCL3 Test counter :          0
PSCL3 Leapfrog:          0
PSCL3 MSHR merge:          0
PSCL3 TOTAL     ACCESS:          0  HIT:          0  MISS:          0  HIT %:       -nan  MISS %:       -nan   MPKI: 0
PSCL3 PREFETCH  REQUESTED:          0  ISSUED:          0  USEFUL:          0  USELESS:          0
PSCL3 USEFUL LOAD PREFETCHES:          0 PREFETCH ISSUED TO LOWER LEVEL:          0  ACCURACY: -nan
PSCL3 TIMELY PREFETCHES:          0 LATE PREFETCHES: 0 DROPPED PREFETCHES: 0
PSCL3 COMMIT LATE PREFETCHES: 0 NORMAL LATE: 0 MISSED OPPORTUNITY: 0 UNCOVERED: 0
PSCL3 PREFETCHES SAME FILL-ORIGIN LEVEL: 0 DIFFERENT FILL-ORIGIN LEVEL: 0

PSCL2 SPEC fills:          0  NON-SPEC fills:          0
PSCL2 Test counter :          0
PSCL2 Leapfrog:          0
PSCL2 MSHR merge:          0
PSCL2 TOTAL     ACCESS:          0  HIT:          0  MISS:          0  HIT %:       -nan  MISS %:       -nan   MPKI: 0
PSCL2 PREFETCH  REQUESTED:          0  ISSUED:          0  USEFUL:          0  USELESS:          0
PSCL2 USEFUL LOAD PREFETCHES:          0 PREFETCH ISSUED TO LOWER LEVEL:          0  ACCURACY: -nan
PSCL2 TIMELY PREFETCHES:          0 LATE PREFETCHES: 0 DROPPED PREFETCHES: 0
PSCL2 COMMIT LATE PREFETCHES: 0 NORMAL LATE: 0 MISSED OPPORTUNITY: 0 UNCOVERED: 0
PSCL2 PREFETCHES SAME FILL-ORIGIN LEVEL: 0 DIFFERENT FILL-ORIGIN LEVEL: 0

LLC SPEC fills:          0  NON-SPEC fills:       3031
LLC Test counter :          0
LLC Leapfrog:          0
LLC MSHR merge:          0
LLC TOTAL     ACCESS:    5475184  HIT:    2965005  MISS:    2510179  HIT %:    54.1535  MISS %:    45.8465   MPKI: 12.5509
LLC LOAD      TOTAL       ACCESS:     140352  HIT:      23784  MISS:     116568  HIT %:     16.946  MISS %:     83.054   MPKI: 0.58284
LLC LOAD      NON_SPEC    ACCESS:       3250  HIT:        219  MISS:       3031  HIT %:    6.73846  MISS %:    93.2615   MPKI: 0.015155
LLC LOAD      SPEC        ACCESS:     137102  HIT:      23565  MISS:     113537  HIT %:    17.1879  MISS %:    82.8121   MPKI: 0.567685
LLC RFO       NON_SPEC    ACCESS:      17247  HIT:        235  MISS:      17012  HIT %:    1.36256  MISS %:    98.6374   MPKI: 0.08506
LLC PREFETCH  NON_SPEC    ACCESS:    2707523  HIT:     445430  MISS:    2262093  HIT %:    16.4516  MISS %:    83.5484   MPKI: 11.3105
LLC WRITEBACK NON_SPEC    ACCESS:      21235  HIT:      13923  MISS:       7312  HIT %:    65.5663  MISS %:    34.4337   MPKI: 0.03656
LLC CLEAN_EVICTION NON_SPEC    ACCESS:    2530504  HIT:    2443189  MISS:      87315  HIT %:    96.5495  MISS %:     3.4505   MPKI: 0.436575
LLC COMMIT LOAD NON_SPEC    ACCESS:       3480  HIT:       1580  MISS:       1900  HIT %:    45.4023  MISS %:    54.5977   MPKI: 0.0095
LLC LOAD TRANSLATION NON_SPEC    ACCESS:      54843  HIT:      36864  MISS:      17979  HIT %:    67.2173  MISS %:    32.7827   MPKI: 0.089895
LLC PREFETCH  REQUESTED:          0  ISSUED:          0  USEFUL:       9522  USELESS:    2252508
LLC USEFUL LOAD PREFETCHES:       9522 PREFETCH ISSUED TO LOWER LEVEL:    2262093  ACCURACY: 0.420938
LLC TIMELY PREFETCHES:       9522 LATE PREFETCHES: 0 DROPPED PREFETCHES: 0
LLC COMMIT LATE PREFETCHES: 0 NORMAL LATE: 0 MISSED OPPORTUNITY: 0 UNCOVERED: 0
LLC PREFETCHES SAME FILL-ORIGIN LEVEL: 76 DIFFERENT FILL-ORIGIN LEVEL: 0
LLC AVERAGE MISS LATENCY: 186.466 cycles
LLC AVERAGE MISS LATENCY LOAD: 154.105 cycles
LLC AVERAGE MISS LATENCY PREFETCH: 194.457 cycles
LLC AVERAGE MSHR OCCUPANCY: 2.06036
LLC MSHR FULL: 0
LLC RQ	ACCESS:     215922	FORWARD:          0	MERGED:          0	TO_CACHE:     215922
LLC WQ	ACCESS:    2551739	FORWARD:          0	MERGED:          0	TO_CACHE:    2551739
LLC PQ	ACCESS:    2707549	FORWARD:          0	MERGED:          7	TO_CACHE:    2707542

LLC Dense regions hint to LLC: 0

RAW hits: 307
Loads Generated: 76447741
Loads sent to L1D: 76447433
Stores Generated: 6800691
Stores sent to L1D: 6800691
Major fault: 0 Minor fault: 82777
Allocated PAGES: 82777
Total Load insts: 95560011
Total Non-spec loads: 8349733
Percentage of speculative loads: 91.2623

LeapFrogging counter: 1703
Commit hits: 33523095 miss: 35524397
Commit hit %: 48.5508 miss %: 51.4492
Commits not translated: 0
Loads retired: 2761538
Stores retired: 6800691
Cache fills: 2761538
L1D response latency: 19.4051 cycles
Load retirement latency: 72.1668 cycles
OOO test counter: 0
Discarded buffer inserts: 33523095 hits: 27221 hit %: 0.0812007
Filter prediction accuracy: -nan
------------------
Depth Distribution
------------------
depth 0: 128322
depth 1: 3336
depth 2: 6617
depth 3: 5969
depth 4: 19229
depth 5: 1181347
depth 6: 2079008
depth 7: 91822
depth 8: 230
depth 9: 0
depth 10: 0
depth 11: 0
depth 12: 0
depth 13: 0
depth 14: 0
depth 15: 0
depth 16: 0
depth 17: 0
depth 18: 0
depth 19: 0
depth 20: 0
depth 21: 0
depth 22: 0
depth 23: 0
depth 24: 0
depth 25: 0
depth 26: 0
depth 27: 0
depth 28: 0
depth 29: 0
Total: 3515880
------------------
ST read accesses: 2682333
ST write accesses: 79009
PT read accesses: 90871476
PT write accesses: 3676926
FILTER read accesses: 57544015
FILTER write accesses: 86324820
GHR read accesses: 5557178
GHR write accesses: 820884
PERC read accesses: 667874754
PERC write accesses: 37455342
GHR counter read accesses: 5522684
GHR counter write accesses: 9103866
GHR ip read accesses: 18795360
GHR ip write accesses: 11045368
ST tag read accesses: 1102307585
ST tag write accesses: 35905528
------------------
Depth Distribution
------------------
depth 0: 65892697
depth 1: 1958
depth 2: 2177
depth 3: 6338
depth 4: 20267
depth 5: 178507
depth 6: 3345840
depth 7: 22815721
depth 8: 3291635
depth 9: 5216
depth 10: 2
depth 11: 1
depth 12: 0
depth 13: 1
depth 14: 2
depth 15: 1
depth 16: 5
depth 17: 2
depth 18: 0
depth 19: 3
depth 20: 3
depth 21: 3
depth 22: 9
depth 23: 1
depth 24: 7
depth 25: 4
depth 26: 1
depth 27: 12
depth 28: 3
depth 29: 3
Total: 95560419
------------------
ST read accesses: 76369189
ST write accesses: 78579
PT read accesses: 966691479
PT write accesses: 35484293
FILTER read accesses: 247195989
FILTER write accesses: 13801098
GHR read accesses: 9490992
GHR write accesses: 1612773
PERC read accesses: 6830775567
PERC write accesses: 35790952
GHR counter read accesses: 152895536
GHR counter write accesses: 84736238
GHR ip read accesses: 244000320
GHR ip write accesses: 305791072
ST tag read accesses: 24033933904
ST tag write accesses: 467740125

DRAM Statistics
 CHANNEL 0
 RQ ROW_BUFFER_HIT:     768993  ROW_BUFFER_MISS:    1646557
 DBUS_CONGESTED:       9177
 WQ ROW_BUFFER_HIT:    1028812  ROW_BUFFER_MISS:    1104343  FULL:          0

 AVG_CONGESTED_CYCLE: 4
 All warmup complete: 2
Channel 0 Bank busy for read cycles: 0
Channel 0 Bank busy for write cycles: 0
Channel 0
Rank 0
0banks busy for read cycles: 644581
0banks busy for write cycles: 696
1banks busy for read cycles: 50980573
1banks busy for write cycles: 613939
2banks busy for read cycles: 40067547
2banks busy for write cycles: 729314
3banks busy for read cycles: 21804314
3banks busy for write cycles: 910800
4banks busy for read cycles: 10515731
4banks busy for write cycles: 1245594
5banks busy for read cycles: 4457510
5banks busy for write cycles: 1796902
6banks busy for read cycles: 2033867
6banks busy for write cycles: 2821554
7banks busy for read cycles: 1278111
7banks busy for write cycles: 6700794
8banks busy for read cycles: 692981
8banks busy for write cycles: 48936392

CPU 0 Branch Prediction Accuracy: 99.9315% MPKI: 0.03438 Average ROB Occupancy at Mispredict: 62.6979
Branch types
NOT_BRANCH: 189955076 94.9775%
BRANCH_DIRECT_JUMP: 162 8.1e-05%
BRANCH_INDIRECT: 0 0%
BRANCH_CONDITIONAL: 10044110 5.02205%
BRANCH_DIRECT_CALL: 162 8.1e-05%
BRANCH_INDIRECT_CALL: 0 0%
BRANCH_RETURN: 162 8.1e-05%
BRANCH_OTHER: 0 0%

DRAM PAGES: 1048576
Allocated PAGES: 82777
