
*** ChampSim Multicore Out-of-Order Simulator ***

Warmup Instructions: 50000000
Simulation Instructions: 200000000
Number of CPUs: 1
LLC sets: 2048
LLC ways: 16
L0D sets: 16
L0D ways: 2
ROB size: 352
LQ size: 128
SQ size: 72
Secure Berti: ON
Berti: ON
Berti Fill: ON
On commit prefetching: OFF
Hit-based filter: ON
Time-guarding: ON
Free-slotting: ON
Leap-frogging: ON
Train prefetcher on L0D bypass: OFF
No translation penalty for prefetchers: OFF
Prefetch to L0D only: OFF
Prefetch to L1D only: OFF
Clean evictions: ON
Commit loads: ON
Commit write: ON
Fill commit loads to L2C, LLC: ON
DRAM IO FREQUENCY: 6400
ROB SIZE: 352
Off-chip DRAM Size: 4096 MB Channels: 1 Width: 64-bit Data Rate: 6400 MT/s
CPU 0 runs /home/sumon/secure_berti/GhostMinion/../../traces/spec/600.perlbench_s-570B.champsimtrace.xz
.xz
BTB has LRU replacement policy
ITLB has LRU replacement policy
DTLB has LRU replacement policy
STLB has LRU replacement policy
L1I has LRU replacement policy
L0D has LRU replacement policy
Berti version on_commit
History Sets: 8
History Ways: 16
BERTI Size: 16
BERTI Stride Size: 16
L1D has LRU replacement policy
L2C has LRU replacement policy
LLC has LRU replacement policy
Heartbeat CPU 0 instructions: 10000003 cycles: 3770964 heartbeat IPC: 2.65184 cumulative IPC: 2.65184 (Simulation time: 0 hr 0 min 33 sec) 
Heartbeat CPU 0 instructions: 20000000 cycles: 7477785 heartbeat IPC: 2.69773 cumulative IPC: 2.67459 (Simulation time: 0 hr 1 min 7 sec) 
Heartbeat CPU 0 instructions: 30000000 cycles: 11409706 heartbeat IPC: 2.54329 cumulative IPC: 2.62934 (Simulation time: 0 hr 1 min 42 sec) 
Heartbeat CPU 0 instructions: 40000002 cycles: 15306890 heartbeat IPC: 2.56596 cumulative IPC: 2.6132 (Simulation time: 0 hr 2 min 16 sec) 
Heartbeat CPU 0 instructions: 50000002 cycles: 18986007 heartbeat IPC: 2.71804 cumulative IPC: 2.63352 (Simulation time: 0 hr 2 min 50 sec) 

Warmup complete CPU 0 instructions: 50000002 cycles: 18986007 (Simulation time: 0 hr 2 min 50 sec) 

Heartbeat CPU 0 instructions: 60000000 cycles: 31949747 heartbeat IPC: 0.771382 cumulative IPC: 0.771382 (Simulation time: 0 hr 3 min 34 sec) 
Heartbeat CPU 0 instructions: 70000000 cycles: 52350419 heartbeat IPC: 0.49018 cumulative IPC: 0.599441 (Simulation time: 0 hr 4 min 22 sec) 
Heartbeat CPU 0 instructions: 80000002 cycles: 73614239 heartbeat IPC: 0.470282 cumulative IPC: 0.549167 (Simulation time: 0 hr 5 min 13 sec) 
Heartbeat CPU 0 instructions: 90000003 cycles: 99114912 heartbeat IPC: 0.392147 cumulative IPC: 0.499196 (Simulation time: 0 hr 6 min 7 sec) 
Heartbeat CPU 0 instructions: 100000002 cycles: 113182079 heartbeat IPC: 0.710875 cumulative IPC: 0.530808 (Simulation time: 0 hr 6 min 53 sec) 
Heartbeat CPU 0 instructions: 110000000 cycles: 127127788 heartbeat IPC: 0.717066 cumulative IPC: 0.554827 (Simulation time: 0 hr 7 min 39 sec) 
Heartbeat CPU 0 instructions: 120000003 cycles: 141821997 heartbeat IPC: 0.68054 cumulative IPC: 0.569866 (Simulation time: 0 hr 8 min 27 sec) 
Heartbeat CPU 0 instructions: 130000000 cycles: 156355590 heartbeat IPC: 0.688061 cumulative IPC: 0.582371 (Simulation time: 0 hr 9 min 14 sec) 
Heartbeat CPU 0 instructions: 140000003 cycles: 182190323 heartbeat IPC: 0.387076 cumulative IPC: 0.551456 (Simulation time: 0 hr 10 min 8 sec) 
Heartbeat CPU 0 instructions: 150000001 cycles: 206014662 heartbeat IPC: 0.419739 cumulative IPC: 0.534677 (Simulation time: 0 hr 11 min 3 sec) 
Heartbeat CPU 0 instructions: 160000001 cycles: 226257918 heartbeat IPC: 0.493992 cumulative IPC: 0.530704 (Simulation time: 0 hr 11 min 54 sec) 
Heartbeat CPU 0 instructions: 170000001 cycles: 241717495 heartbeat IPC: 0.646848 cumulative IPC: 0.538765 (Simulation time: 0 hr 12 min 42 sec) 
Heartbeat CPU 0 instructions: 180000000 cycles: 260889038 heartbeat IPC: 0.521606 cumulative IPC: 0.537405 (Simulation time: 0 hr 13 min 31 sec) 
Heartbeat CPU 0 instructions: 190000001 cycles: 286575528 heartbeat IPC: 0.38931 cumulative IPC: 0.523189 (Simulation time: 0 hr 14 min 25 sec) 
Heartbeat CPU 0 instructions: 200000001 cycles: 310846591 heartbeat IPC: 0.412013 cumulative IPC: 0.513944 (Simulation time: 0 hr 15 min 19 sec) 
Heartbeat CPU 0 instructions: 210000000 cycles: 329941408 heartbeat IPC: 0.523702 cumulative IPC: 0.514543 (Simulation time: 0 hr 16 min 6 sec) 
Heartbeat CPU 0 instructions: 220000000 cycles: 344643027 heartbeat IPC: 0.680197 cumulative IPC: 0.522022 (Simulation time: 0 hr 17 min 19 sec) 
Heartbeat CPU 0 instructions: 230000000 cycles: 358212849 heartbeat IPC: 0.736929 cumulative IPC: 0.530618 (Simulation time: 0 hr 18 min 36 sec) 
Heartbeat CPU 0 instructions: 240000002 cycles: 372636201 heartbeat IPC: 0.69332 cumulative IPC: 0.537254 (Simulation time: 0 hr 20 min 3 sec) 
Heartbeat CPU 0 instructions: 250000003 cycles: 387595094 heartbeat IPC: 0.668499 cumulative IPC: 0.54258 (Simulation time: 0 hr 21 min 33 sec) 
Finished CPU 0 instructions: 200000001 cycles: 368609087 cumulative IPC: 0.54258 (Simulation time: 0 hr 21 min 33 sec) 
 Instruction ID: 250000017

ChampSim completed all CPUs

Region of Interest Statistics

CPU 0 cumulative IPC: 0.54258 instructions: 200000001 cycles: 368609087
ITLB SPEC fills:          0  NON-SPEC fills:          0
ITLB Test counter :          0
ITLB Leapfrog:          0
ITLB MSHR merge:          0
ITLB TOTAL     ACCESS:   31176621  HIT:   31117750  MISS:      58871  HIT %:    99.8112  MISS %:   0.188831   MPKI: 0.294355
ITLB LOAD TRANSLATION NON_SPEC    ACCESS:   31176621  HIT:   31117750  MISS:      58871  HIT %:    99.8112  MISS %:   0.188831   MPKI: 0.294355
ITLB PREFETCH  REQUESTED:          0  ISSUED:          0  USEFUL:          0  USELESS:          0
ITLB USEFUL LOAD PREFETCHES:          0 PREFETCH ISSUED TO LOWER LEVEL:          0  ACCURACY: -nan
ITLB TIMELY PREFETCHES:          0 LATE PREFETCHES: 0 DROPPED PREFETCHES: 0
ITLB COMMIT LATE PREFETCHES: 0 MISSED OPPORTUNITY: 0 LATE IN PQ: 0 UNCOVERED: 0
ITLB COMMIT LATE MSHR PREFETCHES: 0
ITLB MPKI TOTAL: 0 MSHR LATE: 0 PQ LATE: 0 COMMIT LATE: 0 MISSED OPPORTUNITY: 0 UNCOVERED: 0
ITLB PREFETCHES SAME FILL-ORIGIN LEVEL: 0 DIFFERENT FILL-ORIGIN LEVEL: 0
ITLB AVERAGE MISS LATENCY: 10.7685 cycles
ITLB AVERAGE MISS LATENCY LOAD: -nan cycles
ITLB AVERAGE MISS LATENCY PREFETCH: -nan cycles
ITLB AVERAGE MSHR OCCUPANCY: 0.00104035
ITLB MSHR FULL: 0
ITLB RQ	ACCESS:   35143024	FORWARD:          0	MERGED:    3944840	TO_CACHE:   31198184

DTLB SPEC fills:          0  NON-SPEC fills:          0
DTLB Test counter :          0
DTLB Leapfrog:          0
DTLB MSHR merge:          0
DTLB TOTAL     ACCESS:   57156912  HIT:   56619083  MISS:     537829  HIT %:     99.059  MISS %:   0.940969   MPKI: 2.68914
DTLB LOAD TRANSLATION NON_SPEC    ACCESS:   57156912  HIT:   56619083  MISS:     537829  HIT %:     99.059  MISS %:   0.940969   MPKI: 2.68914
DTLB PREFETCH  REQUESTED:          0  ISSUED:          0  USEFUL:          0  USELESS:          0
DTLB USEFUL LOAD PREFETCHES:          0 PREFETCH ISSUED TO LOWER LEVEL:          0  ACCURACY: -nan
DTLB TIMELY PREFETCHES:          0 LATE PREFETCHES: 0 DROPPED PREFETCHES: 0
DTLB COMMIT LATE PREFETCHES: 0 MISSED OPPORTUNITY: 0 LATE IN PQ: 0 UNCOVERED: 0
DTLB COMMIT LATE MSHR PREFETCHES: 0
DTLB MPKI TOTAL: 0 MSHR LATE: 0 PQ LATE: 0 COMMIT LATE: 0 MISSED OPPORTUNITY: 0 UNCOVERED: 0
DTLB PREFETCHES SAME FILL-ORIGIN LEVEL: 0 DIFFERENT FILL-ORIGIN LEVEL: 0
DTLB AVERAGE MISS LATENCY: 14.7923 cycles
DTLB AVERAGE MISS LATENCY LOAD: -nan cycles
DTLB AVERAGE MISS LATENCY PREFETCH: -nan cycles
DTLB AVERAGE MSHR OCCUPANCY: 0.0133698
DTLB MSHR FULL: 1.41671e-06
DTLB RQ	ACCESS:   79015464	FORWARD:          0	MERGED:   21840921	TO_CACHE:   57174543

STLB SPEC fills:          0  NON-SPEC fills:          0
STLB Test counter :          0
STLB Leapfrog:          0
STLB MSHR merge:          0
STLB TOTAL     ACCESS:     889028  HIT:     865206  MISS:      23822  HIT %:    97.3204  MISS %:    2.67956   MPKI: 0.11911
STLB LOAD TRANSLATION NON_SPEC    ACCESS:     596700  HIT:     573257  MISS:      23443  HIT %:    96.0712  MISS %:    3.92877   MPKI: 0.117215
STLB TRANSLATION FROM L1D PREFETCHER NON_SPEC    ACCESS:     292328  HIT:     291949  MISS:        379  HIT %:    99.8704  MISS %:   0.129649   MPKI: 0.001895
STLB PREFETCH  REQUESTED:          0  ISSUED:          0  USEFUL:        336  USELESS:         43
STLB USEFUL LOAD PREFETCHES:        336 PREFETCH ISSUED TO LOWER LEVEL:          0  ACCURACY: inf
STLB TIMELY PREFETCHES:        336 LATE PREFETCHES: 5 DROPPED PREFETCHES: 5739
STLB COMMIT LATE PREFETCHES: 0 MISSED OPPORTUNITY: 0 LATE IN PQ: 0 UNCOVERED: 0
STLB COMMIT LATE MSHR PREFETCHES: 0
STLB MPKI TOTAL: 0 MSHR LATE: 2.5e-05 PQ LATE: 0 COMMIT LATE: 0 MISSED OPPORTUNITY: 0 UNCOVERED: 0
STLB PREFETCHES SAME FILL-ORIGIN LEVEL: 0 DIFFERENT FILL-ORIGIN LEVEL: 0
STLB AVERAGE MISS LATENCY: 135.879 cycles
STLB AVERAGE MISS LATENCY LOAD: -nan cycles
STLB AVERAGE MISS LATENCY PREFETCH: -nan cycles
STLB AVERAGE MSHR OCCUPANCY: 0.00780716
STLB MSHR FULL: 0
STLB RQ	ACCESS:    1242926	FORWARD:          0	MERGED:     348106	TO_CACHE:     894820

STLB Hit, L1D data hit: 0
STLB Hit, L2C data hit: 0
STLB Hit, LLC data hit: 0
STLB Hit, LLC data miss: 0
STLB STLB hints to L2: 0
L0D SPEC fills:   22335509  NON-SPEC fills:          0
L0D TimeGuard Request with older TS:      58836 Restricted eviction:      53587 read:      38587
L0D Test counter :          0
L0D Leapfrog:          0
L0D MSHR merge:     631844
L0D TOTAL     ACCESS:   38642987  HIT:    3376927  MISS:   35266060  HIT %:    8.73878  MISS %:    91.2612   MPKI: 176.33
L0D LOAD      TOTAL       ACCESS:   38642987  HIT:    3376927  MISS:   35266060  HIT %:    8.73878  MISS %:    91.2612   MPKI: 176.33
L0D LOAD      NON_SPEC    ACCESS:   13024810  HIT:     147836  MISS:   12876974  HIT %:    1.13503  MISS %:     98.865   MPKI: 64.3849
L0D LOAD      SPEC        ACCESS:   25618177  HIT:    3229091  MISS:   22389086  HIT %:    12.6047  MISS %:    87.3953   MPKI: 111.945
L0D PREFETCH  REQUESTED:          0  ISSUED:          0  USEFUL:          0  USELESS:          0
L0D USEFUL LOAD PREFETCHES:          0 PREFETCH ISSUED TO LOWER LEVEL:          0  ACCURACY: -nan
L0D TIMELY PREFETCHES:          0 LATE PREFETCHES: 0 DROPPED PREFETCHES: 0
L0D COMMIT LATE PREFETCHES: 0 MISSED OPPORTUNITY: 0 LATE IN PQ: 0 UNCOVERED: 0
L0D COMMIT LATE MSHR PREFETCHES: 0
L0D MPKI TOTAL: 179.49 MSHR LATE: 0 PQ LATE: 0 COMMIT LATE: 0 MISSED OPPORTUNITY: 0 UNCOVERED: 0
L0D PREFETCHES SAME FILL-ORIGIN LEVEL: 0 DIFFERENT FILL-ORIGIN LEVEL: 0
L0D AVERAGE MISS LATENCY: 6.23272 cycles
L0D AVERAGE MISS LATENCY LOAD: 6.23272 cycles
L0D AVERAGE MISS LATENCY PREFETCH: -nan cycles
L0D AVERAGE MSHR OCCUPANCY: 0.585223
L0D MSHR FULL: 5.70337e-06
L0D RQ	ACCESS:   46798098	FORWARD:          0	MERGED:    7523272	TO_CACHE:   39274826
L0D WQ	ACCESS:   39740638	FORWARD:          0	MERGED:          0	TO_CACHE:   39740638

L1D SPEC fills:          0  NON-SPEC fills:     228175
L1D Test counter :     317446
L1D Leapfrog:          0
L1D MSHR merge:       2952
L1D TOTAL     ACCESS:   75414705  HIT:   74494747  MISS:     919958  HIT %:    98.7801  MISS %:    1.21987   MPKI: 4.59979
L1D LOAD      TOTAL       ACCESS:   35263194  HIT:   34715972  MISS:     547222  HIT %:    98.4482  MISS %:    1.55182   MPKI: 2.73611
L1D LOAD      NON_SPEC    ACCESS:   12875075  HIT:   12646900  MISS:     228175  HIT %:    98.2278  MISS %:    1.77222   MPKI: 1.14087
L1D LOAD      SPEC        ACCESS:   22388119  HIT:   22069072  MISS:     319047  HIT %:    98.5749  MISS %:    1.42507   MPKI: 1.59523
L1D RFO       NON_SPEC    ACCESS:   39251307  HIT:   39203387  MISS:      47920  HIT %:    99.8779  MISS %:   0.122085   MPKI: 0.2396
L1D PREFETCH  NON_SPEC    ACCESS:     350302  HIT:     342095  MISS:       8207  HIT %:    97.6572  MISS %:    2.34284   MPKI: 0.041035
L1D COMMIT LOAD NON_SPEC    ACCESS:     221441  HIT:     219934  MISS:       1507  HIT %:    99.3195  MISS %:   0.680542   MPKI: 0.007535
L1D COMMIT WRITE NON_SPEC    ACCESS:     328461  HIT:      13359  MISS:     315102  HIT %:    4.06715  MISS %:    95.9329   MPKI: 1.57551
L1D PREFETCH  REQUESTED:     742868  ISSUED:     739085  USEFUL:       6029  USELESS:       2178
L1D USEFUL LOAD PREFETCHES:       6029 PREFETCH ISSUED TO LOWER LEVEL:     293566  ACCURACY: 2.05371
L1D TIMELY PREFETCHES:       6029 LATE PREFETCHES: 87 DROPPED PREFETCHES: 7717
L1D COMMIT LATE PREFETCHES: 0 MISSED OPPORTUNITY: 0 LATE IN PQ: 0 UNCOVERED: 0
L1D COMMIT LATE MSHR PREFETCHES: 0
L1D MPKI TOTAL: 2.75044 MSHR LATE: 0.000435 PQ LATE: 0 COMMIT LATE: 0 MISSED OPPORTUNITY: 0 UNCOVERED: 0
L1D PREFETCHES SAME FILL-ORIGIN LEVEL: 8297 DIFFERENT FILL-ORIGIN LEVEL: 285269
L1D AVERAGE MISS LATENCY: 44.6664 cycles
L1D AVERAGE MISS LATENCY LOAD: 69.3923 cycles
L1D AVERAGE MISS LATENCY PREFETCH: 56.4188 cycles
L1D AVERAGE MSHR OCCUPANCY: 0.0209416
L1D MSHR FULL: 1.72735e-05
L1D RQ	ACCESS:   35558160	FORWARD:          0	MERGED:      60696	TO_CACHE:   35487578
L1D WQ	ACCESS:   40069142	FORWARD:       9886	MERGED:     395033	TO_CACHE:   39674109
L1D PQ	ACCESS:     739085	FORWARD:          0	MERGED:      92859	TO_CACHE:     646226

L1D UNIQUE REGIONS ACCESSED: 0
L1D REGIONS CONFLICTS: 0
L1D Cross Page Prefetch Requests: 60955
L1D Same Page Prefetch Requests: 763100
L1D ROI Sum of L1D PQ occupancy: 10662933
L1D PREFETCHES PUSHED FROM L2C: 0
L1I SPEC fills:          0  NON-SPEC fills:          0
L1I Test counter :          0
L1I Leapfrog:          0
L1I MSHR merge:     219729
L1I TOTAL     ACCESS:   34923295  HIT:   34048944  MISS:     874351  HIT %:    97.4964  MISS %:    2.50363   MPKI: 4.37175
L1I LOAD      TOTAL       ACCESS:   34923295  HIT:   34048944  MISS:     874351  HIT %:    97.4964  MISS %:    2.50363   MPKI: 4.37175
L1I LOAD      NON_SPEC    ACCESS:   34923295  HIT:   34048944  MISS:     874351  HIT %:    97.4964  MISS %:    2.50363   MPKI: 4.37175
L1I PREFETCH  REQUESTED:          0  ISSUED:          0  USEFUL:          0  USELESS:          0
L1I USEFUL LOAD PREFETCHES:          0 PREFETCH ISSUED TO LOWER LEVEL:          0  ACCURACY: -nan
L1I TIMELY PREFETCHES:          0 LATE PREFETCHES: 0 DROPPED PREFETCHES: 0
L1I COMMIT LATE PREFETCHES: 0 MISSED OPPORTUNITY: 0 LATE IN PQ: 0 UNCOVERED: 0
L1I COMMIT LATE MSHR PREFETCHES: 0
L1I MPKI TOTAL: 5.4704 MSHR LATE: 0 PQ LATE: 0 COMMIT LATE: 0 MISSED OPPORTUNITY: 0 UNCOVERED: 0
L1I PREFETCHES SAME FILL-ORIGIN LEVEL: 0 DIFFERENT FILL-ORIGIN LEVEL: 0
L1I AVERAGE MISS LATENCY: 17.6109 cycles
L1I AVERAGE MISS LATENCY LOAD: 17.6109 cycles
L1I AVERAGE MISS LATENCY PREFETCH: -nan cycles
L1I AVERAGE MSHR OCCUPANCY: 0.0330536
L1I MSHR FULL: 0
L1I RQ	ACCESS:   55988136	FORWARD:          0	MERGED:   20845112	TO_CACHE:   35143024

BTB SPEC fills:          0  NON-SPEC fills:          0
BTB Test counter :          0
BTB Leapfrog:          0
BTB MSHR merge:          0
BTB TOTAL     ACCESS:   25984963  HIT:   24489037  MISS:    1495926  HIT %:    94.2431  MISS %:    5.75689   MPKI: 7.47963
BTB BRANCH_DIRECT_JUMP	ACCESS:    4141047  HIT:    4130444  MISS:      10603
BTB BRANCH_INDIRECT	ACCESS:    1274734  HIT:     405661  MISS:     869073
BTB BRANCH_CONDITIONAL	ACCESS:   16683297  HIT:   16654181  MISS:      29116
BTB BRANCH_DIRECT_CALL	ACCESS:    1551808  HIT:    1544398  MISS:       7410
BTB BRANCH_INDIRECT_CALL	ACCESS:     391135  HIT:      53393  MISS:     337742
BTB BRANCH_RETURN	ACCESS:    1942942  HIT:    1700960  MISS:     241982
BTB BRANCH_OTHER ACCESS:          0  HIT:          0  MISS:          0

L2C SPEC fills:          0  NON-SPEC fills:     104217
L2C Test counter :     126172
L2C Leapfrog:          0
L2C MSHR merge:       1148
L2C TOTAL     ACCESS:    2301672  HIT:    1866526  MISS:     435146  HIT %:    81.0944  MISS %:    18.9056   MPKI: 2.17573
L2C LOAD      TOTAL       ACCESS:    1421438  HIT:    1170258  MISS:     251180  HIT %:    82.3292  MISS %:    17.6708   MPKI: 1.2559
L2C LOAD      NON_SPEC    ACCESS:    1102490  HIT:     962250  MISS:     140240  HIT %:    87.2797  MISS %:    12.7203   MPKI: 0.7012
L2C LOAD      SPEC        ACCESS:     318948  HIT:     208008  MISS:     110940  HIT %:    65.2169  MISS %:    34.7831   MPKI: 0.5547
L2C RFO       NON_SPEC    ACCESS:      47910  HIT:      33700  MISS:      14210  HIT %:    70.3402  MISS %:    29.6598   MPKI: 0.07105
L2C PREFETCH  NON_SPEC    ACCESS:     288783  HIT:     244784  MISS:      43999  HIT %:     84.764  MISS %:     15.236   MPKI: 0.219995
L2C WRITEBACK NON_SPEC    ACCESS:      76833  HIT:      76385  MISS:        448  HIT %:    99.4169  MISS %:   0.583083   MPKI: 0.00224
L2C CLEAN_EVICTION NON_SPEC    ACCESS:     317446  HIT:     204258  MISS:     113188  HIT %:    64.3442  MISS %:    35.6558   MPKI: 0.56594
L2C COMMIT LOAD NON_SPEC    ACCESS:       1506  HIT:       1299  MISS:        207  HIT %:     86.255  MISS %:     13.745   MPKI: 0.001035
L2C LOAD TRANSLATION NON_SPEC    ACCESS:     117141  HIT:     105535  MISS:      11606  HIT %:    90.0923  MISS %:    9.90772   MPKI: 0.05803
L2C TRANSLATION FROM L1D PREFETCHER NON_SPEC    ACCESS:      30615  HIT:      30307  MISS:        308  HIT %:     98.994  MISS %:    1.00604   MPKI: 0.00154
L2C PREFETCH  REQUESTED:          0  ISSUED:          0  USEFUL:      14556  USELESS:      29704
L2C USEFUL LOAD PREFETCHES:      14556 PREFETCH ISSUED TO LOWER LEVEL:      45156  ACCURACY: 32.2349
L2C TIMELY PREFETCHES:      14556 LATE PREFETCHES: 1157 DROPPED PREFETCHES: 0
L2C COMMIT LATE PREFETCHES: 0 MISSED OPPORTUNITY: 0 LATE IN PQ: 0 UNCOVERED: 0
L2C COMMIT LATE MSHR PREFETCHES: 0
L2C MPKI TOTAL: 1.2559 MSHR LATE: 0.005785 PQ LATE: 0 COMMIT LATE: 0 MISSED OPPORTUNITY: 0 UNCOVERED: 0
L2C PREFETCHES SAME FILL-ORIGIN LEVEL: 43237 DIFFERENT FILL-ORIGIN LEVEL: 0
L2C AVERAGE MISS LATENCY: 101.928 cycles
L2C AVERAGE MISS LATENCY LOAD: 135.953 cycles
L2C AVERAGE MISS LATENCY PREFETCH: 160.929 cycles
L2C AVERAGE MSHR OCCUPANCY: 0.148624
L2C MSHR FULL: 0
L2C RQ	ACCESS:    1618666	FORWARD:          0	MERGED:          0	TO_CACHE:    1618610
L2C WQ	ACCESS:     394279	FORWARD:         56	MERGED:          0	TO_CACHE:     394279
L2C PQ	ACCESS:     293566	FORWARD:          0	MERGED:         14	TO_CACHE:     293552

L2C Instructions Evicting Data 29741
L2C Translations Evicting Data 10046
L2C Data Evicting Data 137222
L2C Instructions Evicting Instructions 4441
L2C Translations Evicting Instructions 1382
L2C Data Evicting Instructions 18380
L2C Instructions Evicting Translations 1491
L2C Translations Evicting Translations 365
L2C Data Evicting Translations 5905
L2C Dense regions hint from L2: 0
PSCL5 SPEC fills:          0  NON-SPEC fills:          0
PSCL5 Test counter :          0
PSCL5 Leapfrog:          0
PSCL5 MSHR merge:          0
PSCL5 TOTAL     ACCESS:          0  HIT:          0  MISS:          0  HIT %:       -nan  MISS %:       -nan   MPKI: 0
PSCL5 PREFETCH  REQUESTED:          0  ISSUED:          0  USEFUL:          0  USELESS:          0
PSCL5 USEFUL LOAD PREFETCHES:          0 PREFETCH ISSUED TO LOWER LEVEL:          0  ACCURACY: -nan
PSCL5 TIMELY PREFETCHES:          0 LATE PREFETCHES: 0 DROPPED PREFETCHES: 0
PSCL5 COMMIT LATE PREFETCHES: 0 MISSED OPPORTUNITY: 0 LATE IN PQ: 0 UNCOVERED: 0
PSCL5 COMMIT LATE MSHR PREFETCHES: 0
PSCL5 MPKI TOTAL: 0 MSHR LATE: 0 PQ LATE: 0 COMMIT LATE: 0 MISSED OPPORTUNITY: 0 UNCOVERED: 0
PSCL5 PREFETCHES SAME FILL-ORIGIN LEVEL: 0 DIFFERENT FILL-ORIGIN LEVEL: 0

PSCL4 SPEC fills:          0  NON-SPEC fills:          0
PSCL4 Test counter :          0
PSCL4 Leapfrog:          0
PSCL4 MSHR merge:          0
PSCL4 TOTAL     ACCESS:          0  HIT:          0  MISS:          0  HIT %:       -nan  MISS %:       -nan   MPKI: 0
PSCL4 PREFETCH  REQUESTED:          0  ISSUED:          0  USEFUL:          0  USELESS:          0
PSCL4 USEFUL LOAD PREFETCHES:          0 PREFETCH ISSUED TO LOWER LEVEL:          0  ACCURACY: -nan
PSCL4 TIMELY PREFETCHES:          0 LATE PREFETCHES: 0 DROPPED PREFETCHES: 0
PSCL4 COMMIT LATE PREFETCHES: 0 MISSED OPPORTUNITY: 0 LATE IN PQ: 0 UNCOVERED: 0
PSCL4 COMMIT LATE MSHR PREFETCHES: 0
PSCL4 MPKI TOTAL: 0 MSHR LATE: 0 PQ LATE: 0 COMMIT LATE: 0 MISSED OPPORTUNITY: 0 UNCOVERED: 0
PSCL4 PREFETCHES SAME FILL-ORIGIN LEVEL: 0 DIFFERENT FILL-ORIGIN LEVEL: 0

PSCL3 SPEC fills:          0  NON-SPEC fills:          0
PSCL3 Test counter :          0
PSCL3 Leapfrog:          0
PSCL3 MSHR merge:          0
PSCL3 TOTAL     ACCESS:          0  HIT:          0  MISS:          0  HIT %:       -nan  MISS %:       -nan   MPKI: 0
PSCL3 PREFETCH  REQUESTED:          0  ISSUED:          0  USEFUL:          0  USELESS:          0
PSCL3 USEFUL LOAD PREFETCHES:          0 PREFETCH ISSUED TO LOWER LEVEL:          0  ACCURACY: -nan
PSCL3 TIMELY PREFETCHES:          0 LATE PREFETCHES: 0 DROPPED PREFETCHES: 0
PSCL3 COMMIT LATE PREFETCHES: 0 MISSED OPPORTUNITY: 0 LATE IN PQ: 0 UNCOVERED: 0
PSCL3 COMMIT LATE MSHR PREFETCHES: 0
PSCL3 MPKI TOTAL: 0 MSHR LATE: 0 PQ LATE: 0 COMMIT LATE: 0 MISSED OPPORTUNITY: 0 UNCOVERED: 0
PSCL3 PREFETCHES SAME FILL-ORIGIN LEVEL: 0 DIFFERENT FILL-ORIGIN LEVEL: 0

PSCL2 SPEC fills:          0  NON-SPEC fills:          0
PSCL2 Test counter :          0
PSCL2 Leapfrog:          0
PSCL2 MSHR merge:          0
PSCL2 TOTAL     ACCESS:          0  HIT:          0  MISS:          0  HIT %:       -nan  MISS %:       -nan   MPKI: 0
PSCL2 PREFETCH  REQUESTED:          0  ISSUED:          0  USEFUL:          0  USELESS:          0
PSCL2 USEFUL LOAD PREFETCHES:          0 PREFETCH ISSUED TO LOWER LEVEL:          0  ACCURACY: -nan
PSCL2 TIMELY PREFETCHES:          0 LATE PREFETCHES: 0 DROPPED PREFETCHES: 0
PSCL2 COMMIT LATE PREFETCHES: 0 MISSED OPPORTUNITY: 0 LATE IN PQ: 0 UNCOVERED: 0
PSCL2 COMMIT LATE MSHR PREFETCHES: 0
PSCL2 MPKI TOTAL: 0 MSHR LATE: 0 PQ LATE: 0 COMMIT LATE: 0 MISSED OPPORTUNITY: 0 UNCOVERED: 0
PSCL2 PREFETCHES SAME FILL-ORIGIN LEVEL: 0 DIFFERENT FILL-ORIGIN LEVEL: 0

LLC SPEC fills:          0  NON-SPEC fills:      88303
LLC Test counter :      89468
LLC Leapfrog:          0
LLC MSHR merge:          0
LLC TOTAL     ACCESS:     473709  HIT:     138210  MISS:     335499  HIT %:    29.1761  MISS %:    70.8239   MPKI: 1.67749
LLC LOAD      TOTAL       ACCESS:     250031  HIT:      60102  MISS:     189929  HIT %:    24.0378  MISS %:    75.9622   MPKI: 0.949645
LLC LOAD      NON_SPEC    ACCESS:     139623  HIT:      38284  MISS:     101339  HIT %:    27.4196  MISS %:    72.5804   MPKI: 0.506695
LLC LOAD      SPEC        ACCESS:     110408  HIT:      21818  MISS:      88590  HIT %:    19.7612  MISS %:    80.2388   MPKI: 0.44295
LLC RFO       NON_SPEC    ACCESS:      14201  HIT:       4482  MISS:       9719  HIT %:    31.5612  MISS %:    68.4388   MPKI: 0.048595
LLC PREFETCH  NON_SPEC    ACCESS:      45156  HIT:       6102  MISS:      39054  HIT %:    13.5132  MISS %:    86.4868   MPKI: 0.19527
LLC WRITEBACK NON_SPEC    ACCESS:      26028  HIT:      25695  MISS:        333  HIT %:    98.7206  MISS %:    1.27939   MPKI: 0.001665
LLC CLEAN_EVICTION NON_SPEC    ACCESS:     126172  HIT:      34814  MISS:      91358  HIT %:    27.5925  MISS %:    72.4075   MPKI: 0.45679
LLC COMMIT LOAD NON_SPEC    ACCESS:        207  HIT:        109  MISS:         98  HIT %:     52.657  MISS %:     47.343   MPKI: 0.00049
LLC LOAD TRANSLATION NON_SPEC    ACCESS:      11606  HIT:       6726  MISS:       4880  HIT %:    57.9528  MISS %:    42.0472   MPKI: 0.0244
LLC TRANSLATION FROM L1D PREFETCHER NON_SPEC    ACCESS:        308  HIT:        180  MISS:        128  HIT %:    58.4416  MISS %:    41.5584   MPKI: 0.00064
LLC PREFETCH  REQUESTED:          0  ISSUED:          0  USEFUL:       1326  USELESS:      34298
LLC USEFUL LOAD PREFETCHES:       1326 PREFETCH ISSUED TO LOWER LEVEL:      39054  ACCURACY: 3.3953
LLC TIMELY PREFETCHES:       1326 LATE PREFETCHES: 0 DROPPED PREFETCHES: 0
LLC COMMIT LATE PREFETCHES: 0 MISSED OPPORTUNITY: 0 LATE IN PQ: 0 UNCOVERED: 0
LLC COMMIT LATE MSHR PREFETCHES: 0
LLC MPKI TOTAL: 0.949645 MSHR LATE: 0 PQ LATE: 0 COMMIT LATE: 0 MISSED OPPORTUNITY: 0 UNCOVERED: 0
LLC PREFETCHES SAME FILL-ORIGIN LEVEL: 0 DIFFERENT FILL-ORIGIN LEVEL: 0
LLC AVERAGE MISS LATENCY: 106.585 cycles
LLC AVERAGE MISS LATENCY LOAD: 144.825 cycles
LLC AVERAGE MISS LATENCY PREFETCH: 151.594 cycles
LLC AVERAGE MSHR OCCUPANCY: 0.265834
LLC MSHR FULL: 0
LLC RQ	ACCESS:     276354	FORWARD:          0	MERGED:          0	TO_CACHE:     276353
LLC WQ	ACCESS:     152200	FORWARD:          1	MERGED:          0	TO_CACHE:     152200
LLC PQ	ACCESS:      45156	FORWARD:          0	MERGED:          0	TO_CACHE:      45156

LLC Dense regions hint to LLC: 0

RAW hits: 3033137
Loads Generated: 49831234
Loads sent to L1D: 46798098
Stores Generated: 39740622
Stores sent to L1D: 39740638
Major fault: 0 Minor fault: 5924
Allocated PAGES: 5924
Total Load insts: 55954621
Total Non-spec loads: 13942881
Percentage of speculative loads: 75.0818

LeapFrogging counter: 166
Commit hits: 22307834 miss: 11438256
Commit hit %: 66.1049 miss %: 33.8951
Commits not translated: 0
Loads retired: 547222
Stores retired: 39740638
Cache fills: 547222
L1D response latency: 69.3923 cycles
Load retirement latency: 102.131 cycles
OOO test counter: 0
Discarded buffer inserts: 22307834 hits: 4429 hit %: 0.019854
Filter prediction accuracy: 99.9659
ALL MISSES SIZE: 4620
LATENCY_FILL: 69.347 549532
LATENCY_FILL_ROB: 87.3997 549409
test counter pref: 2316688
Max ROB Extended: 16

DRAM Statistics
 CHANNEL 0
 RQ ROW_BUFFER_HIT:      45969  ROW_BUFFER_MISS:     197839
 DBUS_CONGESTED:        102
 WQ ROW_BUFFER_HIT:      25574  ROW_BUFFER_MISS:      79967  FULL:          0

 AVG_CONGESTED_CYCLE: 4
 All warmup complete: 2
Channel 0 Bank busy for read cycles: 0
Channel 0 Bank busy for write cycles: 0
Channel 0
Rank 0
0banks busy for read cycles: 327532916
0banks busy for write cycles: 58856
1banks busy for read cycles: 22761765
1banks busy for write cycles: 10275622
2banks busy for read cycles: 3077606
2banks busy for write cycles: 2588356
3banks busy for read cycles: 602455
3banks busy for write cycles: 801469
4banks busy for read cycles: 137734
4banks busy for write cycles: 326829
5banks busy for read cycles: 64144
5banks busy for write cycles: 160392
6banks busy for read cycles: 33043
6banks busy for write cycles: 89307
7banks busy for read cycles: 15294
7banks busy for write cycles: 50022
8banks busy for read cycles: 9188
8banks busy for write cycles: 24090

CPU 0 Branch Prediction Accuracy: 99.0693% MPKI: 1.53431 Average ROB Occupancy at Mispredict: 50.3868
Branch types
NOT_BRANCH: 167028092 83.514%
BRANCH_DIRECT_JUMP: 4141047 2.07052%
BRANCH_INDIRECT: 1274734 0.637367%
BRANCH_CONDITIONAL: 23669876 11.8349%
BRANCH_DIRECT_CALL: 1551808 0.775904%
BRANCH_INDIRECT_CALL: 391135 0.195567%
BRANCH_RETURN: 1942942 0.971471%
BRANCH_OTHER: 0 0%

DRAM PAGES: 1048576
Allocated PAGES: 5924
