
*** ChampSim Multicore Out-of-Order Simulator ***

Warmup Instructions: 50000000
Simulation Instructions: 200000000
Number of CPUs: 1
LLC sets: 2048
LLC ways: 16
L0D sets: 16
L0D ways: 2
ROB size: 352
LQ size: 128
SQ size: 72
Secure Berti: ON
Berti: ON
Berti Fill: ON
On commit prefetching: OFF
Hit-based filter: ON
Time-guarding: ON
Free-slotting: ON
Leap-frogging: ON
Train prefetcher on L0D bypass: OFF
No translation penalty for prefetchers: OFF
Prefetch to L0D only: OFF
Prefetch to L1D only: OFF
Clean evictions: ON
Commit loads: ON
Commit write: ON
Fill commit loads to L2C, LLC: ON
DRAM IO FREQUENCY: 6400
ROB SIZE: 352
Off-chip DRAM Size: 4096 MB Channels: 1 Width: 64-bit Data Rate: 6400 MT/s
CPU 0 runs /home/sumon/secure_berti/GhostMinion/../../traces/spec/603.bwaves_s-2609B.champsimtrace.xz
.xz
BTB has LRU replacement policy
ITLB has LRU replacement policy
DTLB has LRU replacement policy
STLB has LRU replacement policy
L1I has LRU replacement policy
L0D has LRU replacement policy
Berti version on_commit
History Sets: 8
History Ways: 16
BERTI Size: 16
BERTI Stride Size: 16
L1D has LRU replacement policy
L2C has LRU replacement policy
LLC has LRU replacement policy
Heartbeat CPU 0 instructions: 10000002 cycles: 3572730 heartbeat IPC: 2.79898 cumulative IPC: 2.79898 (Simulation time: 0 hr 0 min 44 sec) 
Heartbeat CPU 0 instructions: 20000003 cycles: 7144089 heartbeat IPC: 2.80005 cumulative IPC: 2.79952 (Simulation time: 0 hr 1 min 27 sec) 
Heartbeat CPU 0 instructions: 30000001 cycles: 10719593 heartbeat IPC: 2.79681 cumulative IPC: 2.79861 (Simulation time: 0 hr 2 min 10 sec) 
Heartbeat CPU 0 instructions: 40000002 cycles: 14293865 heartbeat IPC: 2.79777 cumulative IPC: 2.7984 (Simulation time: 0 hr 2 min 53 sec) 
Heartbeat CPU 0 instructions: 50000003 cycles: 17866516 heartbeat IPC: 2.79904 cumulative IPC: 2.79853 (Simulation time: 0 hr 3 min 35 sec) 

Warmup complete CPU 0 instructions: 50000003 cycles: 17866516 (Simulation time: 0 hr 3 min 35 sec) 

Heartbeat CPU 0 instructions: 60000000 cycles: 27778161 heartbeat IPC: 1.00891 cumulative IPC: 1.00891 (Simulation time: 0 hr 4 min 19 sec) 
Heartbeat CPU 0 instructions: 70000000 cycles: 37665255 heartbeat IPC: 1.01142 cumulative IPC: 1.01017 (Simulation time: 0 hr 5 min 3 sec) 
Heartbeat CPU 0 instructions: 80000003 cycles: 47573549 heartbeat IPC: 1.00926 cumulative IPC: 1.00986 (Simulation time: 0 hr 5 min 47 sec) 
Heartbeat CPU 0 instructions: 90000003 cycles: 57454466 heartbeat IPC: 1.01205 cumulative IPC: 1.01041 (Simulation time: 0 hr 6 min 32 sec) 
Heartbeat CPU 0 instructions: 100000001 cycles: 67348510 heartbeat IPC: 1.01071 cumulative IPC: 1.01047 (Simulation time: 0 hr 7 min 17 sec) 
Heartbeat CPU 0 instructions: 110000000 cycles: 77238852 heartbeat IPC: 1.01109 cumulative IPC: 1.01057 (Simulation time: 0 hr 8 min 1 sec) 
Heartbeat CPU 0 instructions: 120000000 cycles: 87137232 heartbeat IPC: 1.01027 cumulative IPC: 1.01053 (Simulation time: 0 hr 8 min 46 sec) 
Heartbeat CPU 0 instructions: 130000003 cycles: 97038300 heartbeat IPC: 1.00999 cumulative IPC: 1.01046 (Simulation time: 0 hr 9 min 30 sec) 
Heartbeat CPU 0 instructions: 140000000 cycles: 106917756 heartbeat IPC: 1.0122 cumulative IPC: 1.01065 (Simulation time: 0 hr 10 min 14 sec) 
Heartbeat CPU 0 instructions: 150000002 cycles: 116835163 heartbeat IPC: 1.00833 cumulative IPC: 1.01042 (Simulation time: 0 hr 10 min 57 sec) 
Heartbeat CPU 0 instructions: 160000000 cycles: 126716301 heartbeat IPC: 1.01203 cumulative IPC: 1.01057 (Simulation time: 0 hr 11 min 41 sec) 
Heartbeat CPU 0 instructions: 170000000 cycles: 136593888 heartbeat IPC: 1.01239 cumulative IPC: 1.01072 (Simulation time: 0 hr 12 min 25 sec) 
Heartbeat CPU 0 instructions: 180000001 cycles: 146479932 heartbeat IPC: 1.01153 cumulative IPC: 1.01078 (Simulation time: 0 hr 13 min 10 sec) 
Heartbeat CPU 0 instructions: 190000001 cycles: 156369075 heartbeat IPC: 1.01121 cumulative IPC: 1.01081 (Simulation time: 0 hr 13 min 54 sec) 
Heartbeat CPU 0 instructions: 200000000 cycles: 166236433 heartbeat IPC: 1.01344 cumulative IPC: 1.01099 (Simulation time: 0 hr 14 min 38 sec) 
Heartbeat CPU 0 instructions: 210000003 cycles: 176103399 heartbeat IPC: 1.01348 cumulative IPC: 1.01114 (Simulation time: 0 hr 15 min 22 sec) 
Heartbeat CPU 0 instructions: 220000000 cycles: 186003602 heartbeat IPC: 1.01008 cumulative IPC: 1.01108 (Simulation time: 0 hr 16 min 6 sec) 
Heartbeat CPU 0 instructions: 230000002 cycles: 195887178 heartbeat IPC: 1.01178 cumulative IPC: 1.01112 (Simulation time: 0 hr 17 min 31 sec) 
Heartbeat CPU 0 instructions: 240000000 cycles: 205770967 heartbeat IPC: 1.01176 cumulative IPC: 1.01115 (Simulation time: 0 hr 19 min 3 sec) 
Heartbeat CPU 0 instructions: 250000002 cycles: 215667913 heartbeat IPC: 1.01041 cumulative IPC: 1.01112 (Simulation time: 0 hr 20 min 35 sec) 
Finished CPU 0 instructions: 200000003 cycles: 197801402 cumulative IPC: 1.01112 (Simulation time: 0 hr 20 min 35 sec) 
 Instruction ID: 250000052

ChampSim completed all CPUs

Region of Interest Statistics

CPU 0 cumulative IPC: 1.01112 instructions: 200000003 cycles: 197801402
ITLB SPEC fills:          0  NON-SPEC fills:          0
ITLB Test counter :          0
ITLB Leapfrog:          0
ITLB MSHR merge:          0
ITLB TOTAL     ACCESS:   25346577  HIT:   25346577  MISS:          0  HIT %:        100  MISS %:          0   MPKI: 0
ITLB LOAD TRANSLATION NON_SPEC    ACCESS:   25346577  HIT:   25346577  MISS:          0  HIT %:        100  MISS %:          0   MPKI: 0
ITLB PREFETCH  REQUESTED:          0  ISSUED:          0  USEFUL:          0  USELESS:          0
ITLB USEFUL LOAD PREFETCHES:          0 PREFETCH ISSUED TO LOWER LEVEL:          0  ACCURACY: -nan
ITLB TIMELY PREFETCHES:          0 LATE PREFETCHES: 0 DROPPED PREFETCHES: 0
ITLB COMMIT LATE PREFETCHES: 0 MISSED OPPORTUNITY: 0 LATE IN PQ: 0 UNCOVERED: 0
ITLB COMMIT LATE MSHR PREFETCHES: 0
ITLB MPKI TOTAL: 0 MSHR LATE: 0 PQ LATE: 0 COMMIT LATE: 0 MISSED OPPORTUNITY: 0 UNCOVERED: 0
ITLB PREFETCHES SAME FILL-ORIGIN LEVEL: 0 DIFFERENT FILL-ORIGIN LEVEL: 0
ITLB AVERAGE MISS LATENCY: -nan cycles
ITLB AVERAGE MISS LATENCY LOAD: -nan cycles
ITLB AVERAGE MISS LATENCY PREFETCH: -nan cycles
ITLB AVERAGE MSHR OCCUPANCY: 0
ITLB MSHR FULL: 0
ITLB RQ	ACCESS:   34389691	FORWARD:          0	MERGED:    9043114	TO_CACHE:   25346577

DTLB SPEC fills:          0  NON-SPEC fills:          0
DTLB Test counter :          0
DTLB Leapfrog:          0
DTLB MSHR merge:          0
DTLB TOTAL     ACCESS:   73891919  HIT:   73750854  MISS:     141065  HIT %:    99.8091  MISS %:   0.190907   MPKI: 0.705325
DTLB LOAD TRANSLATION NON_SPEC    ACCESS:   73891919  HIT:   73750854  MISS:     141065  HIT %:    99.8091  MISS %:   0.190907   MPKI: 0.705325
DTLB PREFETCH  REQUESTED:          0  ISSUED:          0  USEFUL:          0  USELESS:          0
DTLB USEFUL LOAD PREFETCHES:          0 PREFETCH ISSUED TO LOWER LEVEL:          0  ACCURACY: -nan
DTLB TIMELY PREFETCHES:          0 LATE PREFETCHES: 0 DROPPED PREFETCHES: 0
DTLB COMMIT LATE PREFETCHES: 0 MISSED OPPORTUNITY: 0 LATE IN PQ: 0 UNCOVERED: 0
DTLB COMMIT LATE MSHR PREFETCHES: 0
DTLB MPKI TOTAL: 0 MSHR LATE: 0 PQ LATE: 0 COMMIT LATE: 0 MISSED OPPORTUNITY: 0 UNCOVERED: 0
DTLB PREFETCHES SAME FILL-ORIGIN LEVEL: 0 DIFFERENT FILL-ORIGIN LEVEL: 0
DTLB AVERAGE MISS LATENCY: 277.627 cycles
DTLB AVERAGE MISS LATENCY LOAD: -nan cycles
DTLB AVERAGE MISS LATENCY PREFETCH: -nan cycles
DTLB AVERAGE MSHR OCCUPANCY: 0.0205603
DTLB MSHR FULL: 1.50969e-05
DTLB RQ	ACCESS:   86380066	FORWARD:          0	MERGED:   12457412	TO_CACHE:   73922654

STLB SPEC fills:          0  NON-SPEC fills:          0
STLB Test counter :          0
STLB Leapfrog:          0
STLB MSHR merge:          0
STLB TOTAL     ACCESS:   20730864  HIT:   20671482  MISS:      59382  HIT %:    99.7136  MISS %:   0.286442   MPKI: 0.29691
STLB LOAD TRANSLATION NON_SPEC    ACCESS:     141065  HIT:      83985  MISS:      57080  HIT %:    59.5364  MISS %:    40.4636   MPKI: 0.2854
STLB TRANSLATION FROM L1D PREFETCHER NON_SPEC    ACCESS:   20589799  HIT:   20587497  MISS:       2302  HIT %:    99.9888  MISS %:  0.0111803   MPKI: 0.01151
STLB PREFETCH  REQUESTED:          0  ISSUED:          0  USEFUL:       2302  USELESS:          0
STLB USEFUL LOAD PREFETCHES:       2302 PREFETCH ISSUED TO LOWER LEVEL:          0  ACCURACY: inf
STLB TIMELY PREFETCHES:       2302 LATE PREFETCHES: 16399 DROPPED PREFETCHES: 335520
STLB COMMIT LATE PREFETCHES: 0 MISSED OPPORTUNITY: 0 LATE IN PQ: 0 UNCOVERED: 0
STLB COMMIT LATE MSHR PREFETCHES: 0
STLB MPKI TOTAL: 0 MSHR LATE: 0.081995 PQ LATE: 0 COMMIT LATE: 0 MISSED OPPORTUNITY: 0 UNCOVERED: 0
STLB PREFETCHES SAME FILL-ORIGIN LEVEL: 0 DIFFERENT FILL-ORIGIN LEVEL: 0
STLB AVERAGE MISS LATENCY: 642.704 cycles
STLB AVERAGE MISS LATENCY LOAD: -nan cycles
STLB AVERAGE MISS LATENCY PREFETCH: -nan cycles
STLB AVERAGE MSHR OCCUPANCY: 0.0904917
STLB MSHR FULL: 0
STLB RQ	ACCESS:   91462318	FORWARD:          0	MERGED:   70325264	TO_CACHE:   21137054

STLB Hit, L1D data hit: 0
STLB Hit, L2C data hit: 0
STLB Hit, LLC data hit: 0
STLB Hit, LLC data miss: 0
STLB STLB hints to L2: 0
L0D SPEC fills:   48372161  NON-SPEC fills:          0
L0D TimeGuard Request with older TS:    1608010 Restricted eviction:   12313399 read:     162388
L0D Test counter :          0
L0D Leapfrog:          0
L0D MSHR merge:    2301068
L0D TOTAL     ACCESS:   72812199  HIT:    6587671  MISS:   66224528  HIT %:    9.04748  MISS %:    90.9525   MPKI: 331.123
L0D LOAD      TOTAL       ACCESS:   72812199  HIT:    6587671  MISS:   66224528  HIT %:    9.04748  MISS %:    90.9525   MPKI: 331.123
L0D LOAD      NON_SPEC    ACCESS:    5880114  HIT:     338182  MISS:    5541932  HIT %:    5.75128  MISS %:    94.2487   MPKI: 27.7097
L0D LOAD      SPEC        ACCESS:   66932085  HIT:    6249489  MISS:   60682596  HIT %:    9.33706  MISS %:    90.6629   MPKI: 303.413
L0D PREFETCH  REQUESTED:          0  ISSUED:          0  USEFUL:          0  USELESS:          0
L0D USEFUL LOAD PREFETCHES:          0 PREFETCH ISSUED TO LOWER LEVEL:          0  ACCURACY: -nan
L0D TIMELY PREFETCHES:          0 LATE PREFETCHES: 0 DROPPED PREFETCHES: 0
L0D COMMIT LATE PREFETCHES: 0 MISSED OPPORTUNITY: 0 LATE IN PQ: 0 UNCOVERED: 0
L0D COMMIT LATE MSHR PREFETCHES: 0
L0D MPKI TOTAL: 342.628 MSHR LATE: 0 PQ LATE: 0 COMMIT LATE: 0 MISSED OPPORTUNITY: 0 UNCOVERED: 0
L0D PREFETCHES SAME FILL-ORIGIN LEVEL: 0 DIFFERENT FILL-ORIGIN LEVEL: 0
L0D AVERAGE MISS LATENCY: 5.73536 cycles
L0D AVERAGE MISS LATENCY LOAD: 5.73536 cycles
L0D AVERAGE MISS LATENCY PREFETCH: -nan cycles
L0D AVERAGE MSHR OCCUPANCY: 1.72421
L0D MSHR FULL: 0.00823935
L0D RQ	ACCESS:   85464489	FORWARD:          0	MERGED:   10351238	TO_CACHE:   75113251
L0D WQ	ACCESS:   11266815	FORWARD:          0	MERGED:          0	TO_CACHE:   11266815

L1D SPEC fills:          0  NON-SPEC fills:       5405
L1D Test counter :     195089
L1D Leapfrog:          0
L1D MSHR merge:      80608
L1D TOTAL     ACCESS:  162898493  HIT:  158649833  MISS:    4248660  HIT %:    97.3918  MISS %:    2.60816   MPKI: 21.2433
L1D LOAD      TOTAL       ACCESS:   66202217  HIT:   65952447  MISS:     249770  HIT %:    99.6227  MISS %:   0.377283   MPKI: 1.24885
L1D LOAD      NON_SPEC    ACCESS:    5541742  HIT:    5536337  MISS:       5405  HIT %:    99.9025  MISS %:  0.0975325   MPKI: 0.027025
L1D LOAD      SPEC        ACCESS:   60660475  HIT:   60416110  MISS:     244365  HIT %:    99.5972  MISS %:   0.402841   MPKI: 1.22182
L1D RFO       NON_SPEC    ACCESS:   11183396  HIT:   11085948  MISS:      97448  HIT %:    99.1286  MISS %:   0.871363   MPKI: 0.48724
L1D PREFETCH  NON_SPEC    ACCESS:   85157774  HIT:   81487197  MISS:    3670577  HIT %:    95.6897  MISS %:    4.31033   MPKI: 18.3529
L1D COMMIT LOAD NON_SPEC    ACCESS:     159544  HIT:     102517  MISS:      57027  HIT %:    64.2563  MISS %:    35.7437   MPKI: 0.285135
L1D COMMIT WRITE NON_SPEC    ACCESS:     195562  HIT:      21724  MISS:     173838  HIT %:    11.1085  MISS %:    88.8915   MPKI: 0.86919
L1D PREFETCH  REQUESTED:  247938506  ISSUED:   93549944  USEFUL:    3667760  USELESS:       2834
L1D USEFUL LOAD PREFETCHES:    3667760 PREFETCH ISSUED TO LOWER LEVEL:    7249491  ACCURACY: 50.5933
L1D TIMELY PREFETCHES:    3667760 LATE PREFETCHES: 67498 DROPPED PREFETCHES: 1005574
L1D COMMIT LATE PREFETCHES: 0 MISSED OPPORTUNITY: 0 LATE IN PQ: 0 UNCOVERED: 0
L1D COMMIT LATE MSHR PREFETCHES: 0
L1D MPKI TOTAL: 1.3604 MSHR LATE: 0.33749 PQ LATE: 0 COMMIT LATE: 0 MISSED OPPORTUNITY: 0 UNCOVERED: 0
L1D PREFETCHES SAME FILL-ORIGIN LEVEL: 3738732 DIFFERENT FILL-ORIGIN LEVEL: 3510759
L1D AVERAGE MISS LATENCY: 130.511 cycles
L1D AVERAGE MISS LATENCY LOAD: 139.46 cycles
L1D AVERAGE MISS LATENCY PREFETCH: 133.839 cycles
L1D AVERAGE MSHR OCCUPANCY: 2.77839
L1D MSHR FULL: 0.0161369
L1D RQ	ACCESS:   66399560	FORWARD:          0	MERGED:       2964	TO_CACHE:   66396596
L1D WQ	ACCESS:   11462376	FORWARD:          0	MERGED:        180	TO_CACHE:   11462196
L1D PQ	ACCESS:   93549944	FORWARD:          0	MERGED:    2228691	TO_CACHE:   91321253

L1D UNIQUE REGIONS ACCESSED: 0
L1D REGIONS CONFLICTS: 0
L1D Cross Page Prefetch Requests: 3187678
L1D Same Page Prefetch Requests: 110507658
L1D ROI Sum of L1D PQ occupancy: 1828505332
L1D PREFETCHES PUSHED FROM L2C: 0
L1I SPEC fills:          0  NON-SPEC fills:          0
L1I Test counter :          0
L1I Leapfrog:          0
L1I MSHR merge:          0
L1I TOTAL     ACCESS:   34389690  HIT:   34389690  MISS:          0  HIT %:        100  MISS %:          0   MPKI: 0
L1I LOAD      TOTAL       ACCESS:   34389690  HIT:   34389690  MISS:          0  HIT %:        100  MISS %:          0   MPKI: 0
L1I LOAD      NON_SPEC    ACCESS:   34389690  HIT:   34389690  MISS:          0  HIT %:        100  MISS %:          0   MPKI: 0
L1I PREFETCH  REQUESTED:          0  ISSUED:          0  USEFUL:          0  USELESS:          0
L1I USEFUL LOAD PREFETCHES:          0 PREFETCH ISSUED TO LOWER LEVEL:          0  ACCURACY: -nan
L1I TIMELY PREFETCHES:          0 LATE PREFETCHES: 0 DROPPED PREFETCHES: 0
L1I COMMIT LATE PREFETCHES: 0 MISSED OPPORTUNITY: 0 LATE IN PQ: 0 UNCOVERED: 0
L1I COMMIT LATE MSHR PREFETCHES: 0
L1I MPKI TOTAL: 0 MSHR LATE: 0 PQ LATE: 0 COMMIT LATE: 0 MISSED OPPORTUNITY: 0 UNCOVERED: 0
L1I PREFETCHES SAME FILL-ORIGIN LEVEL: 0 DIFFERENT FILL-ORIGIN LEVEL: 0
L1I AVERAGE MISS LATENCY: -nan cycles
L1I AVERAGE MISS LATENCY LOAD: -nan cycles
L1I AVERAGE MISS LATENCY PREFETCH: -nan cycles
L1I AVERAGE MSHR OCCUPANCY: 0
L1I MSHR FULL: 0
L1I RQ	ACCESS:   45821953	FORWARD:          0	MERGED:   11432262	TO_CACHE:   34389691

BTB SPEC fills:          0  NON-SPEC fills:          0
BTB Test counter :          0
BTB Leapfrog:          0
BTB MSHR merge:          0
BTB TOTAL     ACCESS:    4834901  HIT:    4834896  MISS:          5  HIT %:    99.9999  MISS %: 0.000103415   MPKI: 2.5e-05
BTB BRANCH_DIRECT_JUMP	ACCESS:          0  HIT:          0  MISS:          0
BTB BRANCH_INDIRECT	ACCESS:          0  HIT:          0  MISS:          0
BTB BRANCH_CONDITIONAL	ACCESS:    4834901  HIT:    4834896  MISS:          5
BTB BRANCH_DIRECT_CALL	ACCESS:          0  HIT:          0  MISS:          0
BTB BRANCH_INDIRECT_CALL	ACCESS:          0  HIT:          0  MISS:          0
BTB BRANCH_RETURN	ACCESS:          0  HIT:          0  MISS:          0
BTB BRANCH_OTHER ACCESS:          0  HIT:          0  MISS:          0

L2C SPEC fills:          0  NON-SPEC fills:       3684
L2C Test counter :     191645
L2C Leapfrog:          0
L2C MSHR merge:       1648
L2C TOTAL     ACCESS:    9449229  HIT:    5497268  MISS:    3951961  HIT %:    58.1769  MISS %:    41.8231   MPKI: 19.7598
L2C LOAD      TOTAL       ACCESS:     191467  HIT:      43938  MISS:     147529  HIT %:    22.9481  MISS %:    77.0519   MPKI: 0.737645
L2C LOAD      NON_SPEC    ACCESS:       4208  HIT:        524  MISS:       3684  HIT %:    12.4525  MISS %:    87.5475   MPKI: 0.01842
L2C LOAD      SPEC        ACCESS:     187259  HIT:      43414  MISS:     143845  HIT %:    23.1839  MISS %:    76.8161   MPKI: 0.719225
L2C RFO       NON_SPEC    ACCESS:      97448  HIT:          0  MISS:      97448  HIT %:          0  MISS %:        100   MPKI: 0.48724
L2C PREFETCH  NON_SPEC    ACCESS:    6764340  HIT:    3194343  MISS:    3569997  HIT %:    47.2233  MISS %:    52.7767   MPKI: 17.85
L2C WRITEBACK NON_SPEC    ACCESS:      97469  HIT:      97467  MISS:          2  HIT %:    99.9979  MISS %: 0.00205193   MPKI: 1e-05
L2C CLEAN_EVICTION NON_SPEC    ACCESS:     195089  HIT:      99352  MISS:      95737  HIT %:    50.9265  MISS %:    49.0735   MPKI: 0.478685
L2C COMMIT LOAD NON_SPEC    ACCESS:      47827  HIT:      14016  MISS:      33811  HIT %:    29.3056  MISS %:    70.6944   MPKI: 0.169055
L2C LOAD TRANSLATION NON_SPEC    ACCESS:     285159  HIT:     284665  MISS:        494  HIT %:    99.8268  MISS %:   0.173237   MPKI: 0.00247
L2C TRANSLATION FROM L1D PREFETCHER NON_SPEC    ACCESS:    1770430  HIT:    1763487  MISS:       6943  HIT %:    99.6078  MISS %:   0.392165   MPKI: 0.034715
L2C PREFETCH  REQUESTED:          0  ISSUED:          0  USEFUL:      53510  USELESS:    3523635
L2C USEFUL LOAD PREFETCHES:      53510 PREFETCH ISSUED TO LOWER LEVEL:    3572436  ACCURACY: 1.49786
L2C TIMELY PREFETCHES:      53510 LATE PREFETCHES: 2439 DROPPED PREFETCHES: 0
L2C COMMIT LATE PREFETCHES: 0 MISSED OPPORTUNITY: 0 LATE IN PQ: 0 UNCOVERED: 0
L2C COMMIT LATE MSHR PREFETCHES: 0
L2C MPKI TOTAL: 0.737645 MSHR LATE: 0.012195 PQ LATE: 0 COMMIT LATE: 0 MISSED OPPORTUNITY: 0 UNCOVERED: 0
L2C PREFETCHES SAME FILL-ORIGIN LEVEL: 1121190 DIFFERENT FILL-ORIGIN LEVEL: 0
L2C AVERAGE MISS LATENCY: 169.404 cycles
L2C AVERAGE MISS LATENCY LOAD: 157.119 cycles
L2C AVERAGE MISS LATENCY PREFETCH: 173.23 cycles
L2C AVERAGE MSHR OCCUPANCY: 1.94462
L2C MSHR FULL: 0.000506813
L2C RQ	ACCESS:    2392337	FORWARD:          0	MERGED:          0	TO_CACHE:    2392332
L2C WQ	ACCESS:     292558	FORWARD:          5	MERGED:          0	TO_CACHE:     292558
L2C PQ	ACCESS:    7247110	FORWARD:          0	MERGED:        736	TO_CACHE:    7246374

L2C Instructions Evicting Data 0
L2C Translations Evicting Data 7433
L2C Data Evicting Data 3697686
L2C Instructions Evicting Instructions 0
L2C Translations Evicting Instructions 0
L2C Data Evicting Instructions 0
L2C Instructions Evicting Translations 0
L2C Translations Evicting Translations 4
L2C Data Evicting Translations 7254
L2C Dense regions hint from L2: 0
PSCL5 SPEC fills:          0  NON-SPEC fills:          0
PSCL5 Test counter :          0
PSCL5 Leapfrog:          0
PSCL5 MSHR merge:          0
PSCL5 TOTAL     ACCESS:          0  HIT:          0  MISS:          0  HIT %:       -nan  MISS %:       -nan   MPKI: 0
PSCL5 PREFETCH  REQUESTED:          0  ISSUED:          0  USEFUL:          0  USELESS:          0
PSCL5 USEFUL LOAD PREFETCHES:          0 PREFETCH ISSUED TO LOWER LEVEL:          0  ACCURACY: -nan
PSCL5 TIMELY PREFETCHES:          0 LATE PREFETCHES: 0 DROPPED PREFETCHES: 0
PSCL5 COMMIT LATE PREFETCHES: 0 MISSED OPPORTUNITY: 0 LATE IN PQ: 0 UNCOVERED: 0
PSCL5 COMMIT LATE MSHR PREFETCHES: 0
PSCL5 MPKI TOTAL: 0 MSHR LATE: 0 PQ LATE: 0 COMMIT LATE: 0 MISSED OPPORTUNITY: 0 UNCOVERED: 0
PSCL5 PREFETCHES SAME FILL-ORIGIN LEVEL: 0 DIFFERENT FILL-ORIGIN LEVEL: 0

PSCL4 SPEC fills:          0  NON-SPEC fills:          0
PSCL4 Test counter :          0
PSCL4 Leapfrog:          0
PSCL4 MSHR merge:          0
PSCL4 TOTAL     ACCESS:          0  HIT:          0  MISS:          0  HIT %:       -nan  MISS %:       -nan   MPKI: 0
PSCL4 PREFETCH  REQUESTED:          0  ISSUED:          0  USEFUL:          0  USELESS:          0
PSCL4 USEFUL LOAD PREFETCHES:          0 PREFETCH ISSUED TO LOWER LEVEL:          0  ACCURACY: -nan
PSCL4 TIMELY PREFETCHES:          0 LATE PREFETCHES: 0 DROPPED PREFETCHES: 0
PSCL4 COMMIT LATE PREFETCHES: 0 MISSED OPPORTUNITY: 0 LATE IN PQ: 0 UNCOVERED: 0
PSCL4 COMMIT LATE MSHR PREFETCHES: 0
PSCL4 MPKI TOTAL: 0 MSHR LATE: 0 PQ LATE: 0 COMMIT LATE: 0 MISSED OPPORTUNITY: 0 UNCOVERED: 0
PSCL4 PREFETCHES SAME FILL-ORIGIN LEVEL: 0 DIFFERENT FILL-ORIGIN LEVEL: 0

PSCL3 SPEC fills:          0  NON-SPEC fills:          0
PSCL3 Test counter :          0
PSCL3 Leapfrog:          0
PSCL3 MSHR merge:          0
PSCL3 TOTAL     ACCESS:          0  HIT:          0  MISS:          0  HIT %:       -nan  MISS %:       -nan   MPKI: 0
PSCL3 PREFETCH  REQUESTED:          0  ISSUED:          0  USEFUL:          0  USELESS:          0
PSCL3 USEFUL LOAD PREFETCHES:          0 PREFETCH ISSUED TO LOWER LEVEL:          0  ACCURACY: -nan
PSCL3 TIMELY PREFETCHES:          0 LATE PREFETCHES: 0 DROPPED PREFETCHES: 0
PSCL3 COMMIT LATE PREFETCHES: 0 MISSED OPPORTUNITY: 0 LATE IN PQ: 0 UNCOVERED: 0
PSCL3 COMMIT LATE MSHR PREFETCHES: 0
PSCL3 MPKI TOTAL: 0 MSHR LATE: 0 PQ LATE: 0 COMMIT LATE: 0 MISSED OPPORTUNITY: 0 UNCOVERED: 0
PSCL3 PREFETCHES SAME FILL-ORIGIN LEVEL: 0 DIFFERENT FILL-ORIGIN LEVEL: 0

PSCL2 SPEC fills:          0  NON-SPEC fills:          0
PSCL2 Test counter :          0
PSCL2 Leapfrog:          0
PSCL2 MSHR merge:          0
PSCL2 TOTAL     ACCESS:          0  HIT:          0  MISS:          0  HIT %:       -nan  MISS %:       -nan   MPKI: 0
PSCL2 PREFETCH  REQUESTED:          0  ISSUED:          0  USEFUL:          0  USELESS:          0
PSCL2 USEFUL LOAD PREFETCHES:          0 PREFETCH ISSUED TO LOWER LEVEL:          0  ACCURACY: -nan
PSCL2 TIMELY PREFETCHES:          0 LATE PREFETCHES: 0 DROPPED PREFETCHES: 0
PSCL2 COMMIT LATE PREFETCHES: 0 MISSED OPPORTUNITY: 0 LATE IN PQ: 0 UNCOVERED: 0
PSCL2 COMMIT LATE MSHR PREFETCHES: 0
PSCL2 MPKI TOTAL: 0 MSHR LATE: 0 PQ LATE: 0 COMMIT LATE: 0 MISSED OPPORTUNITY: 0 UNCOVERED: 0
PSCL2 PREFETCHES SAME FILL-ORIGIN LEVEL: 0 DIFFERENT FILL-ORIGIN LEVEL: 0

LLC SPEC fills:          0  NON-SPEC fills:       3658
LLC Test counter :     190235
LLC Leapfrog:          0
LLC MSHR merge:          0
LLC TOTAL     ACCESS:    4145355  HIT:     195348  MISS:    3950007  HIT %:    4.71246  MISS %:    95.2875   MPKI: 19.75
LLC LOAD      TOTAL       ACCESS:     145881  HIT:         13  MISS:     145868  HIT %: 0.00891137  MISS %:    99.9911   MPKI: 0.72934
LLC LOAD      NON_SPEC    ACCESS:       3658  HIT:          0  MISS:       3658  HIT %:          0  MISS %:        100   MPKI: 0.01829
LLC LOAD      SPEC        ACCESS:     142223  HIT:         13  MISS:     142210  HIT %: 0.00914058  MISS %:    99.9909   MPKI: 0.71105
LLC RFO       NON_SPEC    ACCESS:      97448  HIT:          0  MISS:      97448  HIT %:          0  MISS %:        100   MPKI: 0.48724
LLC PREFETCH  NON_SPEC    ACCESS:    3572436  HIT:        300  MISS:    3572136  HIT %: 0.00839763  MISS %:    99.9916   MPKI: 17.8607
LLC WRITEBACK NON_SPEC    ACCESS:      97488  HIT:      97488  MISS:          0  HIT %:        100  MISS %:          0   MPKI: 0
LLC CLEAN_EVICTION NON_SPEC    ACCESS:     191645  HIT:      97256  MISS:      94389  HIT %:     50.748  MISS %:     49.252   MPKI: 0.471945
LLC COMMIT LOAD NON_SPEC    ACCESS:      33020  HIT:        291  MISS:      32729  HIT %:   0.881284  MISS %:    99.1187   MPKI: 0.163645
LLC LOAD TRANSLATION NON_SPEC    ACCESS:        494  HIT:          0  MISS:        494  HIT %:          0  MISS %:        100   MPKI: 0.00247
LLC TRANSLATION FROM L1D PREFETCHER NON_SPEC    ACCESS:       6943  HIT:          0  MISS:       6943  HIT %:          0  MISS %:        100   MPKI: 0.034715
LLC PREFETCH  REQUESTED:          0  ISSUED:          0  USEFUL:        296  USELESS:    3579539
LLC USEFUL LOAD PREFETCHES:        296 PREFETCH ISSUED TO LOWER LEVEL:    3572136  ACCURACY: 0.00828636
LLC TIMELY PREFETCHES:        296 LATE PREFETCHES: 0 DROPPED PREFETCHES: 0
LLC COMMIT LATE PREFETCHES: 0 MISSED OPPORTUNITY: 0 LATE IN PQ: 0 UNCOVERED: 0
LLC COMMIT LATE MSHR PREFETCHES: 0
LLC MPKI TOTAL: 0.72934 MSHR LATE: 0 PQ LATE: 0 COMMIT LATE: 0 MISSED OPPORTUNITY: 0 UNCOVERED: 0
LLC PREFETCHES SAME FILL-ORIGIN LEVEL: 0 DIFFERENT FILL-ORIGIN LEVEL: 0
LLC AVERAGE MISS LATENCY: 139.183 cycles
LLC AVERAGE MISS LATENCY LOAD: 117.939 cycles
LLC AVERAGE MISS LATENCY PREFETCH: 142.485 cycles
LLC AVERAGE MSHR OCCUPANCY: 3.82801
LLC MSHR FULL: 0
LLC RQ	ACCESS:     283786	FORWARD:          0	MERGED:          0	TO_CACHE:     283786
LLC WQ	ACCESS:     289133	FORWARD:          0	MERGED:          0	TO_CACHE:     289133
LLC PQ	ACCESS:    3572436	FORWARD:          0	MERGED:          0	TO_CACHE:    3572436

LLC Dense regions hint to LLC: 0

RAW hits: 495702
Loads Generated: 85960192
Loads sent to L1D: 85464489
Stores Generated: 11266823
Stores sent to L1D: 11266815
Major fault: 0 Minor fault: 70872
Allocated PAGES: 70872
Total Load insts: 106175285
Total Non-spec loads: 6354296
Percentage of speculative loads: 94.0153

LeapFrogging counter: 568230
Commit hits: 47026646 miss: 32480962
Commit hit %: 59.1474 miss %: 40.8526
Commits not translated: 0
Loads retired: 249770
Stores retired: 11266815
Cache fills: 249770
L1D response latency: 139.46 cycles
Load retirement latency: 513.854 cycles
OOO test counter: 0
Discarded buffer inserts: 47026646 hits: 122 hit %: 0.000259427
Filter prediction accuracy: 99.9989
ALL MISSES SIZE: 22805
LATENCY_FILL: 139.421 271501
LATENCY_FILL_ROB: 285.349 270827
test counter pref: 2233610
Max ROB Extended: 23

DRAM Statistics
 CHANNEL 0
 RQ ROW_BUFFER_HIT:    2467944  ROW_BUFFER_MISS:    1387674
 DBUS_CONGESTED:       8462
 WQ ROW_BUFFER_HIT:      46741  ROW_BUFFER_MISS:     240978  FULL:          0

 AVG_CONGESTED_CYCLE: 4
 All warmup complete: 2
Channel 0 Bank busy for read cycles: 0
Channel 0 Bank busy for write cycles: 0
Channel 0
Rank 0
0banks busy for read cycles: 51397066
0banks busy for write cycles: 100567
1banks busy for read cycles: 39961710
1banks busy for write cycles: 13400696
2banks busy for read cycles: 26089332
2banks busy for write cycles: 6402832
3banks busy for read cycles: 18739201
3banks busy for write cycles: 3461088
4banks busy for read cycles: 12837945
4banks busy for write cycles: 1782821
5banks busy for read cycles: 8229435
5banks busy for write cycles: 964370
6banks busy for read cycles: 5533638
6banks busy for write cycles: 546041
7banks busy for read cycles: 4327040
7banks busy for write cycles: 347016
8banks busy for read cycles: 3411423
8banks busy for write cycles: 269182

CPU 0 Branch Prediction Accuracy: 99.9706% MPKI: 0.00733 Average ROB Occupancy at Mispredict: 29.8377
Branch types
NOT_BRANCH: 195007396 97.5037%
BRANCH_DIRECT_JUMP: 0 0%
BRANCH_INDIRECT: 0 0%
BRANCH_CONDITIONAL: 4992275 2.49614%
BRANCH_DIRECT_CALL: 0 0%
BRANCH_INDIRECT_CALL: 0 0%
BRANCH_RETURN: 0 0%
BRANCH_OTHER: 0 0%

DRAM PAGES: 1048576
Allocated PAGES: 70872
