
*** ChampSim Multicore Out-of-Order Simulator ***

Warmup Instructions: 50000000
Simulation Instructions: 200000000
Number of CPUs: 1
LLC sets: 2048
LLC ways: 16
L0D sets: 16
L0D ways: 2
ROB size: 352
LQ size: 128
SQ size: 72
Secure Berti: ON
Berti: ON
Berti Fill: ON
On commit prefetching: OFF
Hit-based filter: ON
Time-guarding: ON
Free-slotting: ON
Leap-frogging: ON
Train prefetcher on L0D bypass: OFF
No translation penalty for prefetchers: OFF
Prefetch to L0D only: OFF
Prefetch to L1D only: OFF
Clean evictions: ON
Commit loads: ON
Commit write: ON
Fill commit loads to L2C, LLC: ON
DRAM IO FREQUENCY: 6400
ROB SIZE: 352
Off-chip DRAM Size: 4096 MB Channels: 1 Width: 64-bit Data Rate: 6400 MT/s
CPU 0 runs /home/sumon/secure_berti/GhostMinion/../../traces/spec/607.cactuBSSN_s-3477B.champsimtrace.xz
.xz
BTB has LRU replacement policy
ITLB has LRU replacement policy
DTLB has LRU replacement policy
STLB has LRU replacement policy
L1I has LRU replacement policy
L0D has LRU replacement policy
Berti version on_commit
History Sets: 8
History Ways: 16
BERTI Size: 16
BERTI Stride Size: 16
L1D has LRU replacement policy
L2C has LRU replacement policy
LLC has LRU replacement policy
Heartbeat CPU 0 instructions: 10000000 cycles: 4514191 heartbeat IPC: 2.21524 cumulative IPC: 2.21524 (Simulation time: 0 hr 0 min 44 sec) 
Heartbeat CPU 0 instructions: 20000001 cycles: 9039457 heartbeat IPC: 2.20982 cumulative IPC: 2.21252 (Simulation time: 0 hr 1 min 27 sec) 
Heartbeat CPU 0 instructions: 30000000 cycles: 13557013 heartbeat IPC: 2.21359 cumulative IPC: 2.21288 (Simulation time: 0 hr 2 min 10 sec) 
Heartbeat CPU 0 instructions: 40000003 cycles: 18069150 heartbeat IPC: 2.21625 cumulative IPC: 2.21372 (Simulation time: 0 hr 2 min 53 sec) 
Heartbeat CPU 0 instructions: 50000002 cycles: 22593684 heartbeat IPC: 2.21017 cumulative IPC: 2.21301 (Simulation time: 0 hr 3 min 36 sec) 

Warmup complete CPU 0 instructions: 50000002 cycles: 22593684 (Simulation time: 0 hr 3 min 36 sec) 

Heartbeat CPU 0 instructions: 60000000 cycles: 40029044 heartbeat IPC: 0.573547 cumulative IPC: 0.573547 (Simulation time: 0 hr 4 min 28 sec) 
Heartbeat CPU 0 instructions: 70000002 cycles: 57386787 heartbeat IPC: 0.576112 cumulative IPC: 0.574827 (Simulation time: 0 hr 5 min 21 sec) 
Heartbeat CPU 0 instructions: 80000003 cycles: 74876054 heartbeat IPC: 0.571779 cumulative IPC: 0.573807 (Simulation time: 0 hr 6 min 13 sec) 
Heartbeat CPU 0 instructions: 90000002 cycles: 92276521 heartbeat IPC: 0.574697 cumulative IPC: 0.574029 (Simulation time: 0 hr 7 min 6 sec) 
Heartbeat CPU 0 instructions: 100000001 cycles: 109669055 heartbeat IPC: 0.574959 cumulative IPC: 0.574215 (Simulation time: 0 hr 7 min 59 sec) 
Heartbeat CPU 0 instructions: 110000000 cycles: 126934123 heartbeat IPC: 0.579204 cumulative IPC: 0.575041 (Simulation time: 0 hr 8 min 52 sec) 
Heartbeat CPU 0 instructions: 120000002 cycles: 144395193 heartbeat IPC: 0.572703 cumulative IPC: 0.574706 (Simulation time: 0 hr 9 min 45 sec) 
Heartbeat CPU 0 instructions: 130000000 cycles: 161961114 heartbeat IPC: 0.569284 cumulative IPC: 0.574022 (Simulation time: 0 hr 10 min 37 sec) 
Heartbeat CPU 0 instructions: 140000000 cycles: 179461845 heartbeat IPC: 0.571405 cumulative IPC: 0.57373 (Simulation time: 0 hr 11 min 31 sec) 
Heartbeat CPU 0 instructions: 150000001 cycles: 196843882 heartbeat IPC: 0.575307 cumulative IPC: 0.573887 (Simulation time: 0 hr 12 min 24 sec) 
Heartbeat CPU 0 instructions: 160000001 cycles: 214505423 heartbeat IPC: 0.566202 cumulative IPC: 0.57318 (Simulation time: 0 hr 13 min 18 sec) 
Heartbeat CPU 0 instructions: 170000000 cycles: 231851057 heartbeat IPC: 0.576514 cumulative IPC: 0.573456 (Simulation time: 0 hr 14 min 11 sec) 
Heartbeat CPU 0 instructions: 180000000 cycles: 249361824 heartbeat IPC: 0.571077 cumulative IPC: 0.573273 (Simulation time: 0 hr 15 min 3 sec) 
Heartbeat CPU 0 instructions: 190000000 cycles: 266694341 heartbeat IPC: 0.57695 cumulative IPC: 0.573534 (Simulation time: 0 hr 15 min 53 sec) 
Heartbeat CPU 0 instructions: 200000000 cycles: 284769189 heartbeat IPC: 0.553255 cumulative IPC: 0.572136 (Simulation time: 0 hr 17 min 29 sec) 
Heartbeat CPU 0 instructions: 210000001 cycles: 302300802 heartbeat IPC: 0.570398 cumulative IPC: 0.572027 (Simulation time: 0 hr 19 min 19 sec) 
Heartbeat CPU 0 instructions: 220000000 cycles: 319617022 heartbeat IPC: 0.577493 cumulative IPC: 0.572346 (Simulation time: 0 hr 21 min 3 sec) 
Heartbeat CPU 0 instructions: 230000000 cycles: 336952177 heartbeat IPC: 0.576862 cumulative IPC: 0.572595 (Simulation time: 0 hr 22 min 10 sec) 
Heartbeat CPU 0 instructions: 240000001 cycles: 354445131 heartbeat IPC: 0.571659 cumulative IPC: 0.572545 (Simulation time: 0 hr 23 min 21 sec) 
Heartbeat CPU 0 instructions: 250000002 cycles: 371877379 heartbeat IPC: 0.57365 cumulative IPC: 0.5726 (Simulation time: 0 hr 24 min 26 sec) 
Finished CPU 0 instructions: 200000000 cycles: 349283695 cumulative IPC: 0.5726 (Simulation time: 0 hr 24 min 26 sec) 
 Instruction ID: 250000026

ChampSim completed all CPUs

Region of Interest Statistics

CPU 0 cumulative IPC: 0.5726 instructions: 200000000 cycles: 349283695
ITLB SPEC fills:          0  NON-SPEC fills:          0
ITLB Test counter :          0
ITLB Leapfrog:          0
ITLB MSHR merge:          0
ITLB TOTAL     ACCESS:   28721627  HIT:   28721627  MISS:          0  HIT %:        100  MISS %:          0   MPKI: 0
ITLB LOAD TRANSLATION NON_SPEC    ACCESS:   28721627  HIT:   28721627  MISS:          0  HIT %:        100  MISS %:          0   MPKI: 0
ITLB PREFETCH  REQUESTED:          0  ISSUED:          0  USEFUL:          0  USELESS:          0
ITLB USEFUL LOAD PREFETCHES:          0 PREFETCH ISSUED TO LOWER LEVEL:          0  ACCURACY: -nan
ITLB TIMELY PREFETCHES:          0 LATE PREFETCHES: 0 DROPPED PREFETCHES: 0
ITLB COMMIT LATE PREFETCHES: 0 MISSED OPPORTUNITY: 0 LATE IN PQ: 0 UNCOVERED: 0
ITLB COMMIT LATE MSHR PREFETCHES: 0
ITLB MPKI TOTAL: 0 MSHR LATE: 0 PQ LATE: 0 COMMIT LATE: 0 MISSED OPPORTUNITY: 0 UNCOVERED: 0
ITLB PREFETCHES SAME FILL-ORIGIN LEVEL: 0 DIFFERENT FILL-ORIGIN LEVEL: 0
ITLB AVERAGE MISS LATENCY: -nan cycles
ITLB AVERAGE MISS LATENCY LOAD: -nan cycles
ITLB AVERAGE MISS LATENCY PREFETCH: -nan cycles
ITLB AVERAGE MSHR OCCUPANCY: 0
ITLB MSHR FULL: 0
ITLB RQ	ACCESS:   34841712	FORWARD:          0	MERGED:    6120085	TO_CACHE:   28721627

DTLB SPEC fills:          0  NON-SPEC fills:          0
DTLB Test counter :          0
DTLB Leapfrog:          0
DTLB MSHR merge:          0
DTLB TOTAL     ACCESS:   61900370  HIT:   54324997  MISS:    7575373  HIT %:     87.762  MISS %:     12.238   MPKI: 37.8769
DTLB LOAD TRANSLATION NON_SPEC    ACCESS:   61900370  HIT:   54324997  MISS:    7575373  HIT %:     87.762  MISS %:     12.238   MPKI: 37.8769
DTLB PREFETCH  REQUESTED:          0  ISSUED:          0  USEFUL:          0  USELESS:          0
DTLB USEFUL LOAD PREFETCHES:          0 PREFETCH ISSUED TO LOWER LEVEL:          0  ACCURACY: -nan
DTLB TIMELY PREFETCHES:          0 LATE PREFETCHES: 0 DROPPED PREFETCHES: 0
DTLB COMMIT LATE PREFETCHES: 0 MISSED OPPORTUNITY: 0 LATE IN PQ: 0 UNCOVERED: 0
DTLB COMMIT LATE MSHR PREFETCHES: 0
DTLB MPKI TOTAL: 0 MSHR LATE: 0 PQ LATE: 0 COMMIT LATE: 0 MISSED OPPORTUNITY: 0 UNCOVERED: 0
DTLB PREFETCHES SAME FILL-ORIGIN LEVEL: 0 DIFFERENT FILL-ORIGIN LEVEL: 0
DTLB AVERAGE MISS LATENCY: 10.0504 cycles
DTLB AVERAGE MISS LATENCY LOAD: -nan cycles
DTLB AVERAGE MISS LATENCY PREFETCH: -nan cycles
DTLB AVERAGE MSHR OCCUPANCY: 0.78277
DTLB MSHR FULL: 0.021218
DTLB RQ	ACCESS:   82893188	FORWARD:          0	MERGED:   20026305	TO_CACHE:   62866883

STLB SPEC fills:          0  NON-SPEC fills:          0
STLB Test counter :          0
STLB Leapfrog:          0
STLB MSHR merge:          0
STLB TOTAL     ACCESS:    7752514  HIT:    7744203  MISS:       8311  HIT %:    99.8928  MISS %:   0.107204   MPKI: 0.041555
STLB LOAD TRANSLATION NON_SPEC    ACCESS:    7575373  HIT:    7567190  MISS:       8183  HIT %:     99.892  MISS %:   0.108021   MPKI: 0.040915
STLB TRANSLATION FROM L1D PREFETCHER NON_SPEC    ACCESS:     177141  HIT:     177013  MISS:        128  HIT %:    99.9277  MISS %:  0.0722588   MPKI: 0.00064
STLB PREFETCH  REQUESTED:          0  ISSUED:          0  USEFUL:        126  USELESS:          0
STLB USEFUL LOAD PREFETCHES:        126 PREFETCH ISSUED TO LOWER LEVEL:          0  ACCURACY: inf
STLB TIMELY PREFETCHES:        126 LATE PREFETCHES: 0 DROPPED PREFETCHES: 43807
STLB COMMIT LATE PREFETCHES: 0 MISSED OPPORTUNITY: 0 LATE IN PQ: 0 UNCOVERED: 0
STLB COMMIT LATE MSHR PREFETCHES: 0
STLB MPKI TOTAL: 0 MSHR LATE: 0 PQ LATE: 0 COMMIT LATE: 0 MISSED OPPORTUNITY: 0 UNCOVERED: 0
STLB PREFETCHES SAME FILL-ORIGIN LEVEL: 0 DIFFERENT FILL-ORIGIN LEVEL: 0
STLB AVERAGE MISS LATENCY: 636.823 cycles
STLB AVERAGE MISS LATENCY LOAD: -nan cycles
STLB AVERAGE MISS LATENCY PREFETCH: -nan cycles
STLB AVERAGE MSHR OCCUPANCY: 0.0144102
STLB MSHR FULL: 0
STLB RQ	ACCESS:    7805442	FORWARD:          0	MERGED:       6427	TO_CACHE:    7799015

STLB Hit, L1D data hit: 0
STLB Hit, L2C data hit: 0
STLB Hit, LLC data hit: 0
STLB Hit, LLC data miss: 0
STLB STLB hints to L2: 0
L0D SPEC fills:   46374520  NON-SPEC fills:          0
L0D TimeGuard Request with older TS:    2883213 Restricted eviction:    2972439 read:    2790342
L0D Test counter :          0
L0D Leapfrog:          0
L0D MSHR merge:    2723092
L0D TOTAL     ACCESS:   64153829  HIT:    8801208  MISS:   55352621  HIT %:    13.7189  MISS %:    86.2811   MPKI: 276.763
L0D LOAD      TOTAL       ACCESS:   64153829  HIT:    8801208  MISS:   55352621  HIT %:    13.7189  MISS %:    86.2811   MPKI: 276.763
L0D LOAD      NON_SPEC    ACCESS:    6357349  HIT:     351127  MISS:    6006222  HIT %:    5.52317  MISS %:    94.4768   MPKI: 30.0311
L0D LOAD      SPEC        ACCESS:   57796480  HIT:    8450081  MISS:   49346399  HIT %:    14.6204  MISS %:    85.3796   MPKI: 246.732
L0D PREFETCH  REQUESTED:          0  ISSUED:          0  USEFUL:          0  USELESS:          0
L0D USEFUL LOAD PREFETCHES:          0 PREFETCH ISSUED TO LOWER LEVEL:          0  ACCURACY: -nan
L0D TIMELY PREFETCHES:          0 LATE PREFETCHES: 0 DROPPED PREFETCHES: 0
L0D COMMIT LATE PREFETCHES: 0 MISSED OPPORTUNITY: 0 LATE IN PQ: 0 UNCOVERED: 0
L0D COMMIT LATE MSHR PREFETCHES: 0
L0D MPKI TOTAL: 290.379 MSHR LATE: 0 PQ LATE: 0 COMMIT LATE: 0 MISSED OPPORTUNITY: 0 UNCOVERED: 0
L0D PREFETCHES SAME FILL-ORIGIN LEVEL: 0 DIFFERENT FILL-ORIGIN LEVEL: 0
L0D AVERAGE MISS LATENCY: 15.3767 cycles
L0D AVERAGE MISS LATENCY LOAD: 15.3767 cycles
L0D AVERAGE MISS LATENCY PREFETCH: -nan cycles
L0D AVERAGE MSHR OCCUPANCY: 5.32669
L0D MSHR FULL: 0.452325
L0D RQ	ACCESS:   77325717	FORWARD:          0	MERGED:   10448806	TO_CACHE:   66876911
L0D WQ	ACCESS:   16016277	FORWARD:          0	MERGED:          0	TO_CACHE:   16016277

L1D SPEC fills:          0  NON-SPEC fills:     605338
L1D Test counter :   10436123
L1D Leapfrog:          0
L1D MSHR merge:      84946
L1D TOTAL     ACCESS:   87688905  HIT:   59269674  MISS:   28419231  HIT %:    67.5908  MISS %:    32.4092   MPKI: 142.096
L1D LOAD      TOTAL       ACCESS:   55267675  HIT:   40936059  MISS:   14331616  HIT %:    74.0687  MISS %:    25.9313   MPKI: 71.6581
L1D LOAD      NON_SPEC    ACCESS:    5993297  HIT:    5387959  MISS:     605338  HIT %:    89.8997  MISS %:    10.1003   MPKI: 3.02669
L1D LOAD      SPEC        ACCESS:   49274378  HIT:   35548100  MISS:   13726278  HIT %:    72.1432  MISS %:    27.8568   MPKI: 68.6314
L1D RFO       NON_SPEC    ACCESS:   15721116  HIT:   14498601  MISS:    1222515  HIT %:    92.2237  MISS %:    7.77626   MPKI: 6.11257
L1D PREFETCH  NON_SPEC    ACCESS:      95686  HIT:      89745  MISS:       5941  HIT %:    93.7912  MISS %:    6.20885   MPKI: 0.029705
L1D COMMIT LOAD NON_SPEC    ACCESS:    5724994  HIT:    3220073  MISS:    2504921  HIT %:    56.2459  MISS %:    43.7541   MPKI: 12.5246
L1D COMMIT WRITE NON_SPEC    ACCESS:   10879434  HIT:     525196  MISS:   10354238  HIT %:    4.82742  MISS %:    95.1726   MPKI: 51.7712
L1D PREFETCH  REQUESTED:     230444  ISSUED:     230444  USEFUL:       3373  USELESS:       2568
L1D USEFUL LOAD PREFETCHES:       3373 PREFETCH ISSUED TO LOWER LEVEL:      91264  ACCURACY: 3.69587
L1D TIMELY PREFETCHES:       3373 LATE PREFETCHES: 0 DROPPED PREFETCHES: 47956
L1D COMMIT LATE PREFETCHES: 0 MISSED OPPORTUNITY: 0 LATE IN PQ: 0 UNCOVERED: 0
L1D COMMIT LATE MSHR PREFETCHES: 0
L1D MPKI TOTAL: 72.0828 MSHR LATE: 0 PQ LATE: 0 COMMIT LATE: 0 MISSED OPPORTUNITY: 0 UNCOVERED: 0
L1D PREFETCHES SAME FILL-ORIGIN LEVEL: 5941 DIFFERENT FILL-ORIGIN LEVEL: 85323
L1D AVERAGE MISS LATENCY: 14.7389 cycles
L1D AVERAGE MISS LATENCY LOAD: 17.9772 cycles
L1D AVERAGE MISS LATENCY PREFETCH: 18.5903 cycles
L1D AVERAGE MSHR OCCUPANCY: 3.30106
L1D MSHR FULL: 0.119157
L1D RQ	ACCESS:   62347547	FORWARD:          0	MERGED:    1132014	TO_CACHE:   61215532
L1D WQ	ACCESS:   26895708	FORWARD:          1	MERGED:     125094	TO_CACHE:   26770614
L1D PQ	ACCESS:     230444	FORWARD:          0	MERGED:        375	TO_CACHE:     230069

L1D UNIQUE REGIONS ACCESSED: 0
L1D REGIONS CONFLICTS: 0
L1D Cross Page Prefetch Requests: 216566
L1D Same Page Prefetch Requests: 115494
L1D ROI Sum of L1D PQ occupancy: 6307458
L1D PREFETCHES PUSHED FROM L2C: 0
L1I SPEC fills:          0  NON-SPEC fills:          0
L1I Test counter :          0
L1I Leapfrog:          0
L1I MSHR merge:    2854818
L1I TOTAL     ACCESS:   31986892  HIT:   26202463  MISS:    5784429  HIT %:    81.9163  MISS %:    18.0837   MPKI: 28.9221
L1I LOAD      TOTAL       ACCESS:   31986892  HIT:   26202463  MISS:    5784429  HIT %:    81.9163  MISS %:    18.0837   MPKI: 28.9221
L1I LOAD      NON_SPEC    ACCESS:   31986892  HIT:   26202463  MISS:    5784429  HIT %:    81.9163  MISS %:    18.0837   MPKI: 28.9221
L1I PREFETCH  REQUESTED:          0  ISSUED:          0  USEFUL:          0  USELESS:          0
L1I USEFUL LOAD PREFETCHES:          0 PREFETCH ISSUED TO LOWER LEVEL:          0  ACCURACY: -nan
L1I TIMELY PREFETCHES:          0 LATE PREFETCHES: 0 DROPPED PREFETCHES: 0
L1I COMMIT LATE PREFETCHES: 0 MISSED OPPORTUNITY: 0 LATE IN PQ: 0 UNCOVERED: 0
L1I COMMIT LATE MSHR PREFETCHES: 0
L1I MPKI TOTAL: 43.1962 MSHR LATE: 0 PQ LATE: 0 COMMIT LATE: 0 MISSED OPPORTUNITY: 0 UNCOVERED: 0
L1I PREFETCHES SAME FILL-ORIGIN LEVEL: 0 DIFFERENT FILL-ORIGIN LEVEL: 0
L1I AVERAGE MISS LATENCY: 14.0389 cycles
L1I AVERAGE MISS LATENCY LOAD: 14.0389 cycles
L1I AVERAGE MISS LATENCY PREFETCH: -nan cycles
L1I AVERAGE MSHR OCCUPANCY: 0.218333
L1I MSHR FULL: 0
L1I RQ	ACCESS:   49658622	FORWARD:          0	MERGED:   14816910	TO_CACHE:   34841712

BTB SPEC fills:          0  NON-SPEC fills:          0
BTB Test counter :          0
BTB Leapfrog:          0
BTB MSHR merge:          0
BTB TOTAL     ACCESS:    1169485  HIT:    1096958  MISS:      72527  HIT %:    93.7984  MISS %:    6.20162   MPKI: 0.362635
BTB BRANCH_DIRECT_JUMP	ACCESS:     217104  HIT:     217073  MISS:         31
BTB BRANCH_INDIRECT	ACCESS:      36158  HIT:      36156  MISS:          2
BTB BRANCH_CONDITIONAL	ACCESS:     482257  HIT:     482171  MISS:         86
BTB BRANCH_DIRECT_CALL	ACCESS:     216983  HIT:     216939  MISS:         44
BTB BRANCH_INDIRECT_CALL	ACCESS:          0  HIT:          0  MISS:          0
BTB BRANCH_RETURN	ACCESS:     216983  HIT:     144619  MISS:      72364
BTB BRANCH_OTHER ACCESS:          0  HIT:          0  MISS:          0

L2C SPEC fills:          0  NON-SPEC fills:      44635
L2C Test counter :     934037
L2C Leapfrog:          0
L2C MSHR merge:          0
L2C TOTAL     ACCESS:   35849524  HIT:   33894258  MISS:    1955266  HIT %:    94.5459  MISS %:    5.45409   MPKI: 9.77633
L2C LOAD      TOTAL       ACCESS:   20099334  HIT:   19173745  MISS:     925589  HIT %:    95.3949  MISS %:    4.60507   MPKI: 4.62795
L2C LOAD      NON_SPEC    ACCESS:    6389383  HIT:    6344369  MISS:      45014  HIT %:    99.2955  MISS %:   0.704512   MPKI: 0.22507
L2C LOAD      SPEC        ACCESS:   13709951  HIT:   12829376  MISS:     880575  HIT %:    93.5771  MISS %:    6.42289   MPKI: 4.40287
L2C RFO       NON_SPEC    ACCESS:    1219974  HIT:    1102887  MISS:     117087  HIT %:    90.4025  MISS %:     9.5975   MPKI: 0.585435
L2C PREFETCH  NON_SPEC    ACCESS:      91221  HIT:      85509  MISS:       5712  HIT %:    93.7383  MISS %:    6.26172   MPKI: 0.02856
L2C WRITEBACK NON_SPEC    ACCESS:    1237453  HIT:    1237442  MISS:         11  HIT %:    99.9991  MISS %: 0.000888923   MPKI: 5.5e-05
L2C CLEAN_EVICTION NON_SPEC    ACCESS:   10436085  HIT:    9705558  MISS:     730527  HIT %:         93  MISS %:    7.00001   MPKI: 3.65264
L2C COMMIT LOAD NON_SPEC    ACCESS:    2504876  HIT:    2340612  MISS:     164264  HIT %:    93.4422  MISS %:    6.55777   MPKI: 0.82132
L2C LOAD TRANSLATION NON_SPEC    ACCESS:      40906  HIT:      29420  MISS:      11486  HIT %:     71.921  MISS %:     28.079   MPKI: 0.05743
L2C TRANSLATION FROM L1D PREFETCHER NON_SPEC    ACCESS:     219675  HIT:     219085  MISS:        590  HIT %:    99.7314  MISS %:   0.268579   MPKI: 0.00295
L2C PREFETCH  REQUESTED:          0  ISSUED:          0  USEFUL:       3064  USELESS:       3231
L2C USEFUL LOAD PREFETCHES:       3064 PREFETCH ISSUED TO LOWER LEVEL:       5712  ACCURACY: 53.6415
L2C TIMELY PREFETCHES:       3064 LATE PREFETCHES: 0 DROPPED PREFETCHES: 0
L2C COMMIT LATE PREFETCHES: 0 MISSED OPPORTUNITY: 0 LATE IN PQ: 0 UNCOVERED: 0
L2C COMMIT LATE MSHR PREFETCHES: 0
L2C MPKI TOTAL: 4.62795 MSHR LATE: 0 PQ LATE: 0 COMMIT LATE: 0 MISSED OPPORTUNITY: 0 UNCOVERED: 0
L2C PREFETCHES SAME FILL-ORIGIN LEVEL: 5046 DIFFERENT FILL-ORIGIN LEVEL: 0
L2C AVERAGE MISS LATENCY: 97.8297 cycles
L2C AVERAGE MISS LATENCY LOAD: 93.4678 cycles
L2C AVERAGE MISS LATENCY PREFETCH: 154.982 cycles
L2C AVERAGE MSHR OCCUPANCY: 0.582273
L2C MSHR FULL: 0
L2C RQ	ACCESS:   24104064	FORWARD:          0	MERGED:          0	TO_CACHE:   24084765
L2C WQ	ACCESS:   11673604	FORWARD:      19341	MERGED:         66	TO_CACHE:   11673538
L2C PQ	ACCESS:      91264	FORWARD:          0	MERGED:          0	TO_CACHE:      91222

L2C Instructions Evicting Data 372
L2C Translations Evicting Data 11933
L2C Data Evicting Data 327563
L2C Instructions Evicting Instructions 0
L2C Translations Evicting Instructions 5
L2C Data Evicting Instructions 109
L2C Instructions Evicting Translations 7
L2C Translations Evicting Translations 138
L2C Data Evicting Translations 4026
L2C Dense regions hint from L2: 0
PSCL5 SPEC fills:          0  NON-SPEC fills:          0
PSCL5 Test counter :          0
PSCL5 Leapfrog:          0
PSCL5 MSHR merge:          0
PSCL5 TOTAL     ACCESS:          0  HIT:          0  MISS:          0  HIT %:       -nan  MISS %:       -nan   MPKI: 0
PSCL5 PREFETCH  REQUESTED:          0  ISSUED:          0  USEFUL:          0  USELESS:          0
PSCL5 USEFUL LOAD PREFETCHES:          0 PREFETCH ISSUED TO LOWER LEVEL:          0  ACCURACY: -nan
PSCL5 TIMELY PREFETCHES:          0 LATE PREFETCHES: 0 DROPPED PREFETCHES: 0
PSCL5 COMMIT LATE PREFETCHES: 0 MISSED OPPORTUNITY: 0 LATE IN PQ: 0 UNCOVERED: 0
PSCL5 COMMIT LATE MSHR PREFETCHES: 0
PSCL5 MPKI TOTAL: 0 MSHR LATE: 0 PQ LATE: 0 COMMIT LATE: 0 MISSED OPPORTUNITY: 0 UNCOVERED: 0
PSCL5 PREFETCHES SAME FILL-ORIGIN LEVEL: 0 DIFFERENT FILL-ORIGIN LEVEL: 0

PSCL4 SPEC fills:          0  NON-SPEC fills:          0
PSCL4 Test counter :          0
PSCL4 Leapfrog:          0
PSCL4 MSHR merge:          0
PSCL4 TOTAL     ACCESS:          0  HIT:          0  MISS:          0  HIT %:       -nan  MISS %:       -nan   MPKI: 0
PSCL4 PREFETCH  REQUESTED:          0  ISSUED:          0  USEFUL:          0  USELESS:          0
PSCL4 USEFUL LOAD PREFETCHES:          0 PREFETCH ISSUED TO LOWER LEVEL:          0  ACCURACY: -nan
PSCL4 TIMELY PREFETCHES:          0 LATE PREFETCHES: 0 DROPPED PREFETCHES: 0
PSCL4 COMMIT LATE PREFETCHES: 0 MISSED OPPORTUNITY: 0 LATE IN PQ: 0 UNCOVERED: 0
PSCL4 COMMIT LATE MSHR PREFETCHES: 0
PSCL4 MPKI TOTAL: 0 MSHR LATE: 0 PQ LATE: 0 COMMIT LATE: 0 MISSED OPPORTUNITY: 0 UNCOVERED: 0
PSCL4 PREFETCHES SAME FILL-ORIGIN LEVEL: 0 DIFFERENT FILL-ORIGIN LEVEL: 0

PSCL3 SPEC fills:          0  NON-SPEC fills:          0
PSCL3 Test counter :          0
PSCL3 Leapfrog:          0
PSCL3 MSHR merge:          0
PSCL3 TOTAL     ACCESS:          0  HIT:          0  MISS:          0  HIT %:       -nan  MISS %:       -nan   MPKI: 0
PSCL3 PREFETCH  REQUESTED:          0  ISSUED:          0  USEFUL:          0  USELESS:          0
PSCL3 USEFUL LOAD PREFETCHES:          0 PREFETCH ISSUED TO LOWER LEVEL:          0  ACCURACY: -nan
PSCL3 TIMELY PREFETCHES:          0 LATE PREFETCHES: 0 DROPPED PREFETCHES: 0
PSCL3 COMMIT LATE PREFETCHES: 0 MISSED OPPORTUNITY: 0 LATE IN PQ: 0 UNCOVERED: 0
PSCL3 COMMIT LATE MSHR PREFETCHES: 0
PSCL3 MPKI TOTAL: 0 MSHR LATE: 0 PQ LATE: 0 COMMIT LATE: 0 MISSED OPPORTUNITY: 0 UNCOVERED: 0
PSCL3 PREFETCHES SAME FILL-ORIGIN LEVEL: 0 DIFFERENT FILL-ORIGIN LEVEL: 0

PSCL2 SPEC fills:          0  NON-SPEC fills:          0
PSCL2 Test counter :          0
PSCL2 Leapfrog:          0
PSCL2 MSHR merge:          0
PSCL2 TOTAL     ACCESS:          0  HIT:          0  MISS:          0  HIT %:       -nan  MISS %:       -nan   MPKI: 0
PSCL2 PREFETCH  REQUESTED:          0  ISSUED:          0  USEFUL:          0  USELESS:          0
PSCL2 USEFUL LOAD PREFETCHES:          0 PREFETCH ISSUED TO LOWER LEVEL:          0  ACCURACY: -nan
PSCL2 TIMELY PREFETCHES:          0 LATE PREFETCHES: 0 DROPPED PREFETCHES: 0
PSCL2 COMMIT LATE PREFETCHES: 0 MISSED OPPORTUNITY: 0 LATE IN PQ: 0 UNCOVERED: 0
PSCL2 COMMIT LATE MSHR PREFETCHES: 0
PSCL2 MPKI TOTAL: 0 MSHR LATE: 0 PQ LATE: 0 COMMIT LATE: 0 MISSED OPPORTUNITY: 0 UNCOVERED: 0
PSCL2 PREFETCHES SAME FILL-ORIGIN LEVEL: 0 DIFFERENT FILL-ORIGIN LEVEL: 0

LLC SPEC fills:          0  NON-SPEC fills:      10002
LLC Test counter :     404647
LLC Leapfrog:          0
LLC MSHR merge:          0
LLC TOTAL     ACCESS:    2275245  HIT:    1352747  MISS:     922498  HIT %:     59.455  MISS %:     40.545   MPKI: 4.61249
LLC LOAD      TOTAL       ACCESS:     925201  HIT:     520166  MISS:     405035  HIT %:    56.2219  MISS %:    43.7781   MPKI: 2.02517
LLC LOAD      NON_SPEC    ACCESS:      45005  HIT:      34624  MISS:      10381  HIT %:    76.9337  MISS %:    23.0663   MPKI: 0.051905
LLC LOAD      SPEC        ACCESS:     880196  HIT:     485542  MISS:     394654  HIT %:    55.1629  MISS %:    44.8371   MPKI: 1.97327
LLC RFO       NON_SPEC    ACCESS:     117087  HIT:          1  MISS:     117086  HIT %: 0.000854066  MISS %:    99.9991   MPKI: 0.58543
LLC PREFETCH  NON_SPEC    ACCESS:       5712  HIT:       1511  MISS:       4201  HIT %:    26.4531  MISS %:    73.5469   MPKI: 0.021005
LLC WRITEBACK NON_SPEC    ACCESS:     117035  HIT:     117028  MISS:          7  HIT %:     99.994  MISS %: 0.00598112   MPKI: 3.5e-05
LLC CLEAN_EVICTION NON_SPEC    ACCESS:     934037  HIT:     603760  MISS:     330277  HIT %:    64.6398  MISS %:    35.3602   MPKI: 1.65139
LLC COMMIT LOAD NON_SPEC    ACCESS:     164097  HIT:      99392  MISS:      64705  HIT %:    60.5691  MISS %:    39.4309   MPKI: 0.323525
LLC LOAD TRANSLATION NON_SPEC    ACCESS:      11486  HIT:      10399  MISS:       1087  HIT %:    90.5363  MISS %:    9.46369   MPKI: 0.005435
LLC TRANSLATION FROM L1D PREFETCHER NON_SPEC    ACCESS:        590  HIT:        490  MISS:        100  HIT %:    83.0508  MISS %:    16.9492   MPKI: 0.0005
LLC PREFETCH  REQUESTED:          0  ISSUED:          0  USEFUL:       3180  USELESS:       1253
LLC USEFUL LOAD PREFETCHES:       3180 PREFETCH ISSUED TO LOWER LEVEL:       4201  ACCURACY: 75.6963
LLC TIMELY PREFETCHES:       3180 LATE PREFETCHES: 0 DROPPED PREFETCHES: 0
LLC COMMIT LATE PREFETCHES: 0 MISSED OPPORTUNITY: 0 LATE IN PQ: 0 UNCOVERED: 0
LLC COMMIT LATE MSHR PREFETCHES: 0
LLC MPKI TOTAL: 2.02517 MSHR LATE: 0 PQ LATE: 0 COMMIT LATE: 0 MISSED OPPORTUNITY: 0 UNCOVERED: 0
LLC PREFETCHES SAME FILL-ORIGIN LEVEL: 0 DIFFERENT FILL-ORIGIN LEVEL: 0
LLC AVERAGE MISS LATENCY: 175.864 cycles
LLC AVERAGE MISS LATENCY LOAD: 164.086 cycles
LLC AVERAGE MISS LATENCY PREFETCH: 169.774 cycles
LLC AVERAGE MSHR OCCUPANCY: 2.04714
LLC MSHR FULL: 0
LLC RQ	ACCESS:    1219016	FORWARD:          0	MERGED:          0	TO_CACHE:    1218461
LLC WQ	ACCESS:    1051072	FORWARD:        555	MERGED:          0	TO_CACHE:    1051072
LLC PQ	ACCESS:       5712	FORWARD:          0	MERGED:          0	TO_CACHE:       5712

LLC Dense regions hint to LLC: 0

RAW hits: 509946
Loads Generated: 77835662
Loads sent to L1D: 77325717
Stores Generated: 16016275
Stores sent to L1D: 16016277
Major fault: 0 Minor fault: 8463
Allocated PAGES: 8463
Total Load insts: 135473586
Total Non-spec loads: 8936690
Percentage of speculative loads: 93.4034

LeapFrogging counter: 32802433
Commit hits: 43828730 miss: 27051860
Commit hit %: 61.8346 miss %: 38.1654
Commits not translated: 0
Loads retired: 14331616
Stores retired: 16016277
Cache fills: 14331616
L1D response latency: 17.9772 cycles
Load retirement latency: 210.928 cycles
OOO test counter: 0
Discarded buffer inserts: 43828730 hits: 574081 hit %: 1.30983
Filter prediction accuracy: 97.924
ALL MISSES SIZE: 220100
LATENCY_FILL: 17.8372 14365751
LATENCY_FILL_ROB: 175.197 14356875
test counter pref: 1948663
Max ROB Extended: 55

DRAM Statistics
 CHANNEL 0
 RQ ROW_BUFFER_HIT:     337522  ROW_BUFFER_MISS:     254692
 DBUS_CONGESTED:        737
 WQ ROW_BUFFER_HIT:     141540  ROW_BUFFER_MISS:     379139  FULL:          0

 AVG_CONGESTED_CYCLE: 5
 All warmup complete: 2
Channel 0 Bank busy for read cycles: 0
Channel 0 Bank busy for write cycles: 0
Channel 0
Rank 0
0banks busy for read cycles: 261817762
0banks busy for write cycles: 276505
1banks busy for read cycles: 28864014
1banks busy for write cycles: 32893820
2banks busy for read cycles: 6279791
2banks busy for write cycles: 9967749
3banks busy for read cycles: 2726789
3banks busy for write cycles: 3475310
4banks busy for read cycles: 836764
4banks busy for write cycles: 1050543
5banks busy for read cycles: 348646
5banks busy for write cycles: 374890
6banks busy for read cycles: 61792
6banks busy for write cycles: 189767
7banks busy for read cycles: 2742
7banks busy for write cycles: 89793
8banks busy for read cycles: 0
8banks busy for write cycles: 27019

CPU 0 Branch Prediction Accuracy: 99.9869% MPKI: 0.001165 Average ROB Occupancy at Mispredict: 21.691
Branch types
NOT_BRANCH: 198225688 99.1128%
BRANCH_DIRECT_JUMP: 217104 0.108552%
BRANCH_INDIRECT: 36158 0.018079%
BRANCH_CONDITIONAL: 1086728 0.543364%
BRANCH_DIRECT_CALL: 216983 0.108492%
BRANCH_INDIRECT_CALL: 0 0%
BRANCH_RETURN: 216983 0.108492%
BRANCH_OTHER: 0 0%

DRAM PAGES: 1048576
Allocated PAGES: 8463
