
*** ChampSim Multicore Out-of-Order Simulator ***

Warmup Instructions: 50000000
Simulation Instructions: 200000000
Number of CPUs: 1
LLC sets: 2048
LLC ways: 16
L0D sets: 16
L0D ways: 2
ROB size: 352
LQ size: 128
SQ size: 72
Secure Berti: ON
Berti: ON
Berti Fill: ON
On commit prefetching: OFF
Hit-based filter: ON
Time-guarding: ON
Free-slotting: ON
Leap-frogging: ON
Train prefetcher on L0D bypass: OFF
No translation penalty for prefetchers: OFF
Prefetch to L0D only: OFF
Prefetch to L1D only: OFF
Clean evictions: ON
Commit loads: ON
Commit write: ON
Fill commit loads to L2C, LLC: ON
DRAM IO FREQUENCY: 6400
ROB SIZE: 352
Off-chip DRAM Size: 4096 MB Channels: 1 Width: 64-bit Data Rate: 6400 MT/s
CPU 0 runs /home/sumon/secure_berti/GhostMinion/../../traces/spec/619.lbm_s-4268B.champsimtrace.xz
.xz
BTB has LRU replacement policy
ITLB has LRU replacement policy
DTLB has LRU replacement policy
STLB has LRU replacement policy
L1I has LRU replacement policy
L0D has LRU replacement policy
Berti version on_commit
History Sets: 8
History Ways: 16
BERTI Size: 16
BERTI Stride Size: 16
L1D has LRU replacement policy
L2C has LRU replacement policy
LLC has LRU replacement policy
Heartbeat CPU 0 instructions: 10000000 cycles: 3103371 heartbeat IPC: 3.2223 cumulative IPC: 3.2223 (Simulation time: 0 hr 0 min 36 sec) 
Heartbeat CPU 0 instructions: 20000003 cycles: 6204792 heartbeat IPC: 3.22433 cumulative IPC: 3.22332 (Simulation time: 0 hr 1 min 12 sec) 
Heartbeat CPU 0 instructions: 30000000 cycles: 9296406 heartbeat IPC: 3.23456 cumulative IPC: 3.22705 (Simulation time: 0 hr 1 min 49 sec) 
Heartbeat CPU 0 instructions: 40000000 cycles: 12403394 heartbeat IPC: 3.21855 cumulative IPC: 3.22492 (Simulation time: 0 hr 2 min 24 sec) 
Heartbeat CPU 0 instructions: 50000002 cycles: 15512897 heartbeat IPC: 3.21595 cumulative IPC: 3.22312 (Simulation time: 0 hr 3 min 3 sec) 

Warmup complete CPU 0 instructions: 50000002 cycles: 15512897 (Simulation time: 0 hr 3 min 3 sec) 

Heartbeat CPU 0 instructions: 60000000 cycles: 42315539 heartbeat IPC: 0.373097 cumulative IPC: 0.373097 (Simulation time: 0 hr 4 min 19 sec) 
Heartbeat CPU 0 instructions: 70000000 cycles: 68589023 heartbeat IPC: 0.380612 cumulative IPC: 0.376817 (Simulation time: 0 hr 5 min 35 sec) 
Heartbeat CPU 0 instructions: 80000000 cycles: 94364504 heartbeat IPC: 0.387966 cumulative IPC: 0.380461 (Simulation time: 0 hr 6 min 52 sec) 
Heartbeat CPU 0 instructions: 90000000 cycles: 120431485 heartbeat IPC: 0.383627 cumulative IPC: 0.381248 (Simulation time: 0 hr 8 min 10 sec) 
Heartbeat CPU 0 instructions: 100000001 cycles: 146300993 heartbeat IPC: 0.386556 cumulative IPC: 0.382298 (Simulation time: 0 hr 9 min 29 sec) 
Heartbeat CPU 0 instructions: 110000000 cycles: 172405612 heartbeat IPC: 0.383074 cumulative IPC: 0.382427 (Simulation time: 0 hr 10 min 46 sec) 
Heartbeat CPU 0 instructions: 120000001 cycles: 198987515 heartbeat IPC: 0.376196 cumulative IPC: 0.381524 (Simulation time: 0 hr 12 min 5 sec) 
Heartbeat CPU 0 instructions: 130000001 cycles: 224535476 heartbeat IPC: 0.391421 cumulative IPC: 0.382734 (Simulation time: 0 hr 13 min 21 sec) 
Heartbeat CPU 0 instructions: 140000000 cycles: 250547543 heartbeat IPC: 0.384437 cumulative IPC: 0.382922 (Simulation time: 0 hr 14 min 37 sec) 
Heartbeat CPU 0 instructions: 150000000 cycles: 277018568 heartbeat IPC: 0.377772 cumulative IPC: 0.382401 (Simulation time: 0 hr 15 min 51 sec) 
Heartbeat CPU 0 instructions: 160000003 cycles: 304070667 heartbeat IPC: 0.369657 cumulative IPC: 0.381206 (Simulation time: 0 hr 18 min 3 sec) 
Heartbeat CPU 0 instructions: 170000002 cycles: 330747092 heartbeat IPC: 0.374863 cumulative IPC: 0.380669 (Simulation time: 0 hr 20 min 38 sec) 
Heartbeat CPU 0 instructions: 180000001 cycles: 357383573 heartbeat IPC: 0.375425 cumulative IPC: 0.380261 (Simulation time: 0 hr 23 min 15 sec) 
Heartbeat CPU 0 instructions: 190000002 cycles: 384062803 heartbeat IPC: 0.374823 cumulative IPC: 0.379867 (Simulation time: 0 hr 25 min 39 sec) 
Heartbeat CPU 0 instructions: 200000000 cycles: 410609115 heartbeat IPC: 0.3767 cumulative IPC: 0.379654 (Simulation time: 0 hr 27 min 20 sec) 
Heartbeat CPU 0 instructions: 210000003 cycles: 437903429 heartbeat IPC: 0.366377 cumulative IPC: 0.378796 (Simulation time: 0 hr 28 min 49 sec) 
Heartbeat CPU 0 instructions: 220000000 cycles: 464954242 heartbeat IPC: 0.369675 cumulative IPC: 0.378247 (Simulation time: 0 hr 30 min 17 sec) 
Heartbeat CPU 0 instructions: 230000000 cycles: 491631203 heartbeat IPC: 0.374855 cumulative IPC: 0.378057 (Simulation time: 0 hr 31 min 42 sec) 
Heartbeat CPU 0 instructions: 240000001 cycles: 518372552 heartbeat IPC: 0.373953 cumulative IPC: 0.377839 (Simulation time: 0 hr 33 min 9 sec) 
Heartbeat CPU 0 instructions: 250000001 cycles: 544521837 heartbeat IPC: 0.38242 cumulative IPC: 0.378065 (Simulation time: 0 hr 34 min 34 sec) 
Finished CPU 0 instructions: 200000002 cycles: 529008941 cumulative IPC: 0.378065 (Simulation time: 0 hr 34 min 34 sec) 
 Instruction ID: 250000145

ChampSim completed all CPUs

Region of Interest Statistics

CPU 0 cumulative IPC: 0.378065 instructions: 200000002 cycles: 529008941
ITLB SPEC fills:          0  NON-SPEC fills:          0
ITLB Test counter :          0
ITLB Leapfrog:          0
ITLB MSHR merge:          0
ITLB TOTAL     ACCESS:   26794983  HIT:   26794983  MISS:          0  HIT %:        100  MISS %:          0   MPKI: 0
ITLB LOAD TRANSLATION NON_SPEC    ACCESS:   26794983  HIT:   26794983  MISS:          0  HIT %:        100  MISS %:          0   MPKI: 0
ITLB PREFETCH  REQUESTED:          0  ISSUED:          0  USEFUL:          0  USELESS:          0
ITLB USEFUL LOAD PREFETCHES:          0 PREFETCH ISSUED TO LOWER LEVEL:          0  ACCURACY: -nan
ITLB TIMELY PREFETCHES:          0 LATE PREFETCHES: 0 DROPPED PREFETCHES: 0
ITLB COMMIT LATE PREFETCHES: 0 MISSED OPPORTUNITY: 0 LATE IN PQ: 0 UNCOVERED: 0
ITLB COMMIT LATE MSHR PREFETCHES: 0
ITLB MPKI TOTAL: 0 MSHR LATE: 0 PQ LATE: 0 COMMIT LATE: 0 MISSED OPPORTUNITY: 0 UNCOVERED: 0
ITLB PREFETCHES SAME FILL-ORIGIN LEVEL: 0 DIFFERENT FILL-ORIGIN LEVEL: 0
ITLB AVERAGE MISS LATENCY: -nan cycles
ITLB AVERAGE MISS LATENCY LOAD: -nan cycles
ITLB AVERAGE MISS LATENCY PREFETCH: -nan cycles
ITLB AVERAGE MSHR OCCUPANCY: 0
ITLB MSHR FULL: 0
ITLB RQ	ACCESS:   34576796	FORWARD:          0	MERGED:    7781812	TO_CACHE:   26794984

DTLB SPEC fills:          0  NON-SPEC fills:          0
DTLB Test counter :          0
DTLB Leapfrog:          0
DTLB MSHR merge:          0
DTLB TOTAL     ACCESS:   46301548  HIT:   46025021  MISS:     276527  HIT %:    99.4028  MISS %:   0.597231   MPKI: 1.38263
DTLB LOAD TRANSLATION NON_SPEC    ACCESS:   46301548  HIT:   46025021  MISS:     276527  HIT %:    99.4028  MISS %:   0.597231   MPKI: 1.38263
DTLB PREFETCH  REQUESTED:          0  ISSUED:          0  USEFUL:          0  USELESS:          0
DTLB USEFUL LOAD PREFETCHES:          0 PREFETCH ISSUED TO LOWER LEVEL:          0  ACCURACY: -nan
DTLB TIMELY PREFETCHES:          0 LATE PREFETCHES: 0 DROPPED PREFETCHES: 0
DTLB COMMIT LATE PREFETCHES: 0 MISSED OPPORTUNITY: 0 LATE IN PQ: 0 UNCOVERED: 0
DTLB COMMIT LATE MSHR PREFETCHES: 0
DTLB MPKI TOTAL: 0 MSHR LATE: 0 PQ LATE: 0 COMMIT LATE: 0 MISSED OPPORTUNITY: 0 UNCOVERED: 0
DTLB PREFETCHES SAME FILL-ORIGIN LEVEL: 0 DIFFERENT FILL-ORIGIN LEVEL: 0
DTLB AVERAGE MISS LATENCY: 137.432 cycles
DTLB AVERAGE MISS LATENCY LOAD: -nan cycles
DTLB AVERAGE MISS LATENCY PREFETCH: -nan cycles
DTLB AVERAGE MSHR OCCUPANCY: 0.106012
DTLB MSHR FULL: 0
DTLB RQ	ACCESS:   66834307	FORWARD:          0	MERGED:   20333302	TO_CACHE:   46501005

STLB SPEC fills:          0  NON-SPEC fills:          0
STLB Test counter :          0
STLB Leapfrog:          0
STLB MSHR merge:          0
STLB TOTAL     ACCESS:    1684574  HIT:    1534550  MISS:     150024  HIT %:    91.0942  MISS %:    8.90575   MPKI: 0.75012
STLB LOAD TRANSLATION NON_SPEC    ACCESS:     276527  HIT:     126503  MISS:     150024  HIT %:    45.7471  MISS %:    54.2529   MPKI: 0.75012
STLB TRANSLATION FROM L1D PREFETCHER NON_SPEC    ACCESS:    1408047  HIT:    1408047  MISS:          0  HIT %:        100  MISS %:          0   MPKI: 0
STLB PREFETCH  REQUESTED:          0  ISSUED:          0  USEFUL:          0  USELESS:          0
STLB USEFUL LOAD PREFETCHES:          0 PREFETCH ISSUED TO LOWER LEVEL:          0  ACCURACY: -nan
STLB TIMELY PREFETCHES:          0 LATE PREFETCHES: 15379 DROPPED PREFETCHES: 564170
STLB COMMIT LATE PREFETCHES: 0 MISSED OPPORTUNITY: 0 LATE IN PQ: 0 UNCOVERED: 0
STLB COMMIT LATE MSHR PREFETCHES: 0
STLB MPKI TOTAL: 0 MSHR LATE: 0.076895 PQ LATE: 0 COMMIT LATE: 0 MISSED OPPORTUNITY: 0 UNCOVERED: 0
STLB PREFETCHES SAME FILL-ORIGIN LEVEL: 0 DIFFERENT FILL-ORIGIN LEVEL: 0
STLB AVERAGE MISS LATENCY: 236.107 cycles
STLB AVERAGE MISS LATENCY LOAD: -nan cycles
STLB AVERAGE MISS LATENCY PREFETCH: -nan cycles
STLB AVERAGE MSHR OCCUPANCY: 0.351401
STLB MSHR FULL: 0
STLB RQ	ACCESS:   14070643	FORWARD:          0	MERGED:   11632225	TO_CACHE:    2438418

STLB Hit, L1D data hit: 0
STLB Hit, L2C data hit: 0
STLB Hit, LLC data hit: 0
STLB Hit, LLC data miss: 0
STLB STLB hints to L2: 0
L0D SPEC fills:   18492451  NON-SPEC fills:          0
L0D TimeGuard Request with older TS:     196393 Restricted eviction:      21300 read:    1005313
L0D Test counter :          0
L0D Leapfrog:          0
L0D MSHR merge:    3070144
L0D TOTAL     ACCESS:   26796261  HIT:    6418276  MISS:   20377985  HIT %:    23.9521  MISS %:    76.0479   MPKI: 101.89
L0D LOAD      TOTAL       ACCESS:   26796261  HIT:    6418276  MISS:   20377985  HIT %:    23.9521  MISS %:    76.0479   MPKI: 101.89
L0D LOAD      NON_SPEC    ACCESS:    2841479  HIT:     977245  MISS:    1864234  HIT %:    34.3921  MISS %:    65.6079   MPKI: 9.32117
L0D LOAD      SPEC        ACCESS:   23954782  HIT:    5441031  MISS:   18513751  HIT %:    22.7138  MISS %:    77.2862   MPKI: 92.5688
L0D PREFETCH  REQUESTED:          0  ISSUED:          0  USEFUL:          0  USELESS:          0
L0D USEFUL LOAD PREFETCHES:          0 PREFETCH ISSUED TO LOWER LEVEL:          0  ACCURACY: -nan
L0D TIMELY PREFETCHES:          0 LATE PREFETCHES: 0 DROPPED PREFETCHES: 0
L0D COMMIT LATE PREFETCHES: 0 MISSED OPPORTUNITY: 0 LATE IN PQ: 0 UNCOVERED: 0
L0D COMMIT LATE MSHR PREFETCHES: 0
L0D MPKI TOTAL: 117.241 MSHR LATE: 0 PQ LATE: 0 COMMIT LATE: 0 MISSED OPPORTUNITY: 0 UNCOVERED: 0
L0D PREFETCHES SAME FILL-ORIGIN LEVEL: 0 DIFFERENT FILL-ORIGIN LEVEL: 0
L0D AVERAGE MISS LATENCY: 56.1825 cycles
L0D AVERAGE MISS LATENCY LOAD: 56.1825 cycles
L0D AVERAGE MISS LATENCY PREFETCH: -nan cycles
L0D AVERAGE MSHR OCCUPANCY: 2.17153
L0D MSHR FULL: 0.167821
L0D RQ	ACCESS:   50027049	FORWARD:          0	MERGED:   20160646	TO_CACHE:   29866403
L0D WQ	ACCESS:   36967904	FORWARD:          0	MERGED:          0	TO_CACHE:   36967904

L1D SPEC fills:          0  NON-SPEC fills:      89833
L1D Test counter :    1412675
L1D Leapfrog:          0
L1D MSHR merge:      93539
L1D TOTAL     ACCESS:   64415424  HIT:   47029602  MISS:   17385822  HIT %:    73.0098  MISS %:    26.9902   MPKI: 86.9291
L1D LOAD      TOTAL       ACCESS:   20356575  HIT:   18833739  MISS:    1522836  HIT %:    92.5192  MISS %:    7.48081   MPKI: 7.61418
L1D LOAD      NON_SPEC    ACCESS:    1857626  HIT:    1767793  MISS:      89833  HIT %:    95.1641  MISS %:     4.8359   MPKI: 0.449165
L1D LOAD      SPEC        ACCESS:   18498949  HIT:   17065946  MISS:    1433003  HIT %:    92.2536  MISS %:     7.7464   MPKI: 7.16501
L1D RFO       NON_SPEC    ACCESS:   36039537  HIT:   22690515  MISS:   13349022  HIT %:    62.9601  MISS %:    37.0399   MPKI: 66.7451
L1D PREFETCH  NON_SPEC    ACCESS:    4979992  HIT:    3971948  MISS:    1008044  HIT %:    79.7581  MISS %:    20.2419   MPKI: 5.04022
L1D COMMIT LOAD NON_SPEC    ACCESS:    1580339  HIT:    1312468  MISS:     267871  HIT %:    83.0498  MISS %:    16.9502   MPKI: 1.33935
L1D COMMIT WRITE NON_SPEC    ACCESS:    1458981  HIT:     220932  MISS:    1238049  HIT %:    15.1429  MISS %:    84.8571   MPKI: 6.19024
L1D PREFETCH  REQUESTED:   36894871  ISSUED:   16638353  USEFUL:     989642  USELESS:      18429
L1D USEFUL LOAD PREFETCHES:     989642 PREFETCH ISSUED TO LOWER LEVEL:    7022195  ACCURACY: 14.0931
L1D TIMELY PREFETCHES:     989642 LATE PREFETCHES: 90890 DROPPED PREFETCHES: 2438835
L1D COMMIT LATE PREFETCHES: 0 MISSED OPPORTUNITY: 0 LATE IN PQ: 0 UNCOVERED: 0
L1D COMMIT LATE MSHR PREFETCHES: 0
L1D MPKI TOTAL: 7.72122 MSHR LATE: 0.45445 PQ LATE: 0 COMMIT LATE: 0 MISSED OPPORTUNITY: 0 UNCOVERED: 0
L1D PREFETCHES SAME FILL-ORIGIN LEVEL: 1099134 DIFFERENT FILL-ORIGIN LEVEL: 5923061
L1D AVERAGE MISS LATENCY: 292.95 cycles
L1D AVERAGE MISS LATENCY LOAD: 289.89 cycles
L1D AVERAGE MISS LATENCY PREFETCH: 175.212 cycles
L1D AVERAGE MSHR OCCUPANCY: 15.5601
L1D MSHR FULL: 0.938116
L1D RQ	ACCESS:   28922034	FORWARD:          0	MERGED:    6958590	TO_CACHE:   21963417
L1D WQ	ACCESS:   38217386	FORWARD:         27	MERGED:     470246	TO_CACHE:   37747140
L1D PQ	ACCESS:   16638353	FORWARD:          0	MERGED:    2844237	TO_CACHE:   13794116

L1D UNIQUE REGIONS ACCESSED: 0
L1D REGIONS CONFLICTS: 0
L1D Cross Page Prefetch Requests: 4976972
L1D Same Page Prefetch Requests: 17801242
L1D ROI Sum of L1D PQ occupancy: 3046149560
L1D PREFETCHES PUSHED FROM L2C: 0
L1I SPEC fills:          0  NON-SPEC fills:          0
L1I Test counter :          0
L1I Leapfrog:          0
L1I MSHR merge:          0
L1I TOTAL     ACCESS:   34576795  HIT:   34576795  MISS:          0  HIT %:        100  MISS %:          0   MPKI: 0
L1I LOAD      TOTAL       ACCESS:   34576795  HIT:   34576795  MISS:          0  HIT %:        100  MISS %:          0   MPKI: 0
L1I LOAD      NON_SPEC    ACCESS:   34576795  HIT:   34576795  MISS:          0  HIT %:        100  MISS %:          0   MPKI: 0
L1I PREFETCH  REQUESTED:          0  ISSUED:          0  USEFUL:          0  USELESS:          0
L1I USEFUL LOAD PREFETCHES:          0 PREFETCH ISSUED TO LOWER LEVEL:          0  ACCURACY: -nan
L1I TIMELY PREFETCHES:          0 LATE PREFETCHES: 0 DROPPED PREFETCHES: 0
L1I COMMIT LATE PREFETCHES: 0 MISSED OPPORTUNITY: 0 LATE IN PQ: 0 UNCOVERED: 0
L1I COMMIT LATE MSHR PREFETCHES: 0
L1I MPKI TOTAL: 0 MSHR LATE: 0 PQ LATE: 0 COMMIT LATE: 0 MISSED OPPORTUNITY: 0 UNCOVERED: 0
L1I PREFETCHES SAME FILL-ORIGIN LEVEL: 0 DIFFERENT FILL-ORIGIN LEVEL: 0
L1I AVERAGE MISS LATENCY: -nan cycles
L1I AVERAGE MISS LATENCY LOAD: -nan cycles
L1I AVERAGE MISS LATENCY PREFETCH: -nan cycles
L1I AVERAGE MSHR OCCUPANCY: 0
L1I MSHR FULL: 0
L1I RQ	ACCESS:   49892529	FORWARD:          0	MERGED:   15315733	TO_CACHE:   34576796

BTB SPEC fills:          0  NON-SPEC fills:          0
BTB Test counter :          0
BTB Leapfrog:          0
BTB MSHR merge:          0
BTB TOTAL     ACCESS:    3614433  HIT:    3614427  MISS:          6  HIT %:    99.9998  MISS %: 0.000166001   MPKI: 3e-05
BTB BRANCH_DIRECT_JUMP	ACCESS:     592790  HIT:     592789  MISS:          1
BTB BRANCH_INDIRECT	ACCESS:          0  HIT:          0  MISS:          0
BTB BRANCH_CONDITIONAL	ACCESS:    3021643  HIT:    3021638  MISS:          5
BTB BRANCH_DIRECT_CALL	ACCESS:          0  HIT:          0  MISS:          0
BTB BRANCH_INDIRECT_CALL	ACCESS:          0  HIT:          0  MISS:          0
BTB BRANCH_RETURN	ACCESS:          0  HIT:          0  MISS:          0
BTB BRANCH_OTHER ACCESS:          0  HIT:          0  MISS:          0

L2C SPEC fills:          0  NON-SPEC fills:      13361
L2C Test counter :    1354525
L2C Leapfrog:          0
L2C MSHR merge:      50433
L2C TOTAL     ACCESS:   40095242  HIT:   29996397  MISS:   10098845  HIT %:    74.8129  MISS %:    25.1871   MPKI: 50.4942
L2C LOAD      TOTAL       ACCESS:    1450132  HIT:    1048228  MISS:     401904  HIT %:     72.285  MISS %:     27.715   MPKI: 2.00952
L2C LOAD      NON_SPEC    ACCESS:      88508  HIT:      75147  MISS:      13361  HIT %:    84.9042  MISS %:    15.0958   MPKI: 0.066805
L2C LOAD      SPEC        ACCESS:    1361624  HIT:     973081  MISS:     388543  HIT %:    71.4647  MISS %:    28.5353   MPKI: 1.94271
L2C RFO       NON_SPEC    ACCESS:   13348983  HIT:    6060135  MISS:    7288848  HIT %:    45.3977  MISS %:    54.6023   MPKI: 36.4442
L2C PREFETCH  NON_SPEC    ACCESS:    6638707  HIT:    4575958  MISS:    2062749  HIT %:    68.9285  MISS %:    31.0715   MPKI: 10.3137
L2C WRITEBACK NON_SPEC    ACCESS:   13349014  HIT:   13348471  MISS:        543  HIT %:    99.9959  MISS %: 0.00406772   MPKI: 0.002715
L2C CLEAN_EVICTION NON_SPEC    ACCESS:    1412645  HIT:    1130329  MISS:     282316  HIT %:    80.0151  MISS %:    19.9849   MPKI: 1.41158
L2C COMMIT LOAD NON_SPEC    ACCESS:     249111  HIT:     205798  MISS:      43313  HIT %:     82.613  MISS %:     17.387   MPKI: 0.216565
L2C LOAD TRANSLATION NON_SPEC    ACCESS:     749974  HIT:     735807  MISS:      14167  HIT %:     98.111  MISS %:      1.889   MPKI: 0.070835
L2C TRANSLATION FROM L1D PREFETCHER NON_SPEC    ACCESS:    2896676  HIT:    2891671  MISS:       5005  HIT %:    99.8272  MISS %:   0.172784   MPKI: 0.025025
L2C PREFETCH  REQUESTED:          0  ISSUED:          0  USEFUL:     989787  USELESS:    1078470
L2C USEFUL LOAD PREFETCHES:     989787 PREFETCH ISSUED TO LOWER LEVEL:    2114697  ACCURACY: 46.8051
L2C TIMELY PREFETCHES:     989787 LATE PREFETCHES: 51947 DROPPED PREFETCHES: 0
L2C COMMIT LATE PREFETCHES: 0 MISSED OPPORTUNITY: 0 LATE IN PQ: 0 UNCOVERED: 0
L2C COMMIT LATE MSHR PREFETCHES: 0
L2C MPKI TOTAL: 2.00952 MSHR LATE: 0.259735 PQ LATE: 0 COMMIT LATE: 0 MISSED OPPORTUNITY: 0 UNCOVERED: 0
L2C PREFETCHES SAME FILL-ORIGIN LEVEL: 1669039 DIFFERENT FILL-ORIGIN LEVEL: 0
L2C AVERAGE MISS LATENCY: 552.446 cycles
L2C AVERAGE MISS LATENCY LOAD: 502.527 cycles
L2C AVERAGE MISS LATENCY PREFETCH: 533.415 cycles
L2C AVERAGE MSHR OCCUPANCY: 13.0261
L2C MSHR FULL: 0.026446
L2C RQ	ACCESS:   18695503	FORWARD:          0	MERGED:          0	TO_CACHE:   18694890
L2C WQ	ACCESS:   14761690	FORWARD:        613	MERGED:         30	TO_CACHE:   14761660
L2C PQ	ACCESS:    7019768	FORWARD:          0	MERGED:       1872	TO_CACHE:    7017896

L2C Instructions Evicting Data 0
L2C Translations Evicting Data 19106
L2C Data Evicting Data 9389825
L2C Instructions Evicting Instructions 0
L2C Translations Evicting Instructions 0
L2C Data Evicting Instructions 0
L2C Instructions Evicting Translations 0
L2C Translations Evicting Translations 66
L2C Data Evicting Translations 18446
L2C Dense regions hint from L2: 0
PSCL5 SPEC fills:          0  NON-SPEC fills:          0
PSCL5 Test counter :          0
PSCL5 Leapfrog:          0
PSCL5 MSHR merge:          0
PSCL5 TOTAL     ACCESS:          0  HIT:          0  MISS:          0  HIT %:       -nan  MISS %:       -nan   MPKI: 0
PSCL5 PREFETCH  REQUESTED:          0  ISSUED:          0  USEFUL:          0  USELESS:          0
PSCL5 USEFUL LOAD PREFETCHES:          0 PREFETCH ISSUED TO LOWER LEVEL:          0  ACCURACY: -nan
PSCL5 TIMELY PREFETCHES:          0 LATE PREFETCHES: 0 DROPPED PREFETCHES: 0
PSCL5 COMMIT LATE PREFETCHES: 0 MISSED OPPORTUNITY: 0 LATE IN PQ: 0 UNCOVERED: 0
PSCL5 COMMIT LATE MSHR PREFETCHES: 0
PSCL5 MPKI TOTAL: 0 MSHR LATE: 0 PQ LATE: 0 COMMIT LATE: 0 MISSED OPPORTUNITY: 0 UNCOVERED: 0
PSCL5 PREFETCHES SAME FILL-ORIGIN LEVEL: 0 DIFFERENT FILL-ORIGIN LEVEL: 0

PSCL4 SPEC fills:          0  NON-SPEC fills:          0
PSCL4 Test counter :          0
PSCL4 Leapfrog:          0
PSCL4 MSHR merge:          0
PSCL4 TOTAL     ACCESS:          0  HIT:          0  MISS:          0  HIT %:       -nan  MISS %:       -nan   MPKI: 0
PSCL4 PREFETCH  REQUESTED:          0  ISSUED:          0  USEFUL:          0  USELESS:          0
PSCL4 USEFUL LOAD PREFETCHES:          0 PREFETCH ISSUED TO LOWER LEVEL:          0  ACCURACY: -nan
PSCL4 TIMELY PREFETCHES:          0 LATE PREFETCHES: 0 DROPPED PREFETCHES: 0
PSCL4 COMMIT LATE PREFETCHES: 0 MISSED OPPORTUNITY: 0 LATE IN PQ: 0 UNCOVERED: 0
PSCL4 COMMIT LATE MSHR PREFETCHES: 0
PSCL4 MPKI TOTAL: 0 MSHR LATE: 0 PQ LATE: 0 COMMIT LATE: 0 MISSED OPPORTUNITY: 0 UNCOVERED: 0
PSCL4 PREFETCHES SAME FILL-ORIGIN LEVEL: 0 DIFFERENT FILL-ORIGIN LEVEL: 0

PSCL3 SPEC fills:          0  NON-SPEC fills:          0
PSCL3 Test counter :          0
PSCL3 Leapfrog:          0
PSCL3 MSHR merge:          0
PSCL3 TOTAL     ACCESS:          0  HIT:          0  MISS:          0  HIT %:       -nan  MISS %:       -nan   MPKI: 0
PSCL3 PREFETCH  REQUESTED:          0  ISSUED:          0  USEFUL:          0  USELESS:          0
PSCL3 USEFUL LOAD PREFETCHES:          0 PREFETCH ISSUED TO LOWER LEVEL:          0  ACCURACY: -nan
PSCL3 TIMELY PREFETCHES:          0 LATE PREFETCHES: 0 DROPPED PREFETCHES: 0
PSCL3 COMMIT LATE PREFETCHES: 0 MISSED OPPORTUNITY: 0 LATE IN PQ: 0 UNCOVERED: 0
PSCL3 COMMIT LATE MSHR PREFETCHES: 0
PSCL3 MPKI TOTAL: 0 MSHR LATE: 0 PQ LATE: 0 COMMIT LATE: 0 MISSED OPPORTUNITY: 0 UNCOVERED: 0
PSCL3 PREFETCHES SAME FILL-ORIGIN LEVEL: 0 DIFFERENT FILL-ORIGIN LEVEL: 0

PSCL2 SPEC fills:          0  NON-SPEC fills:          0
PSCL2 Test counter :          0
PSCL2 Leapfrog:          0
PSCL2 MSHR merge:          0
PSCL2 TOTAL     ACCESS:          0  HIT:          0  MISS:          0  HIT %:       -nan  MISS %:       -nan   MPKI: 0
PSCL2 PREFETCH  REQUESTED:          0  ISSUED:          0  USEFUL:          0  USELESS:          0
PSCL2 USEFUL LOAD PREFETCHES:          0 PREFETCH ISSUED TO LOWER LEVEL:          0  ACCURACY: -nan
PSCL2 TIMELY PREFETCHES:          0 LATE PREFETCHES: 0 DROPPED PREFETCHES: 0
PSCL2 COMMIT LATE PREFETCHES: 0 MISSED OPPORTUNITY: 0 LATE IN PQ: 0 UNCOVERED: 0
PSCL2 COMMIT LATE MSHR PREFETCHES: 0
PSCL2 MPKI TOTAL: 0 MSHR LATE: 0 PQ LATE: 0 COMMIT LATE: 0 MISSED OPPORTUNITY: 0 UNCOVERED: 0
PSCL2 PREFETCHES SAME FILL-ORIGIN LEVEL: 0 DIFFERENT FILL-ORIGIN LEVEL: 0

LLC SPEC fills:          0  NON-SPEC fills:      12142
LLC Test counter :    1350690
LLC Leapfrog:          0
LLC MSHR merge:          0
LLC TOTAL     ACCESS:   18461312  HIT:    8524680  MISS:    9936632  HIT %:    46.1759  MISS %:    53.8241   MPKI: 49.6832
LLC LOAD      TOTAL       ACCESS:     351471  HIT:        334  MISS:     351137  HIT %:  0.0950292  MISS %:     99.905   MPKI: 1.75568
LLC LOAD      NON_SPEC    ACCESS:      12170  HIT:         28  MISS:      12142  HIT %:   0.230074  MISS %:    99.7699   MPKI: 0.06071
LLC LOAD      SPEC        ACCESS:     339301  HIT:        306  MISS:     338995  HIT %:  0.0901854  MISS %:    99.9098   MPKI: 1.69497
LLC RFO       NON_SPEC    ACCESS:    7288795  HIT:     111428  MISS:    7177367  HIT %:    1.52876  MISS %:    98.4712   MPKI: 35.8868
LLC PREFETCH  NON_SPEC    ACCESS:    2114696  HIT:       6829  MISS:    2107867  HIT %:   0.322931  MISS %:    99.6771   MPKI: 10.5393
LLC WRITEBACK NON_SPEC    ACCESS:    7290854  HIT:    7290441  MISS:        413  HIT %:    99.9943  MISS %: 0.00566463   MPKI: 0.002065
LLC CLEAN_EVICTION NON_SPEC    ACCESS:    1354525  HIT:    1110259  MISS:     244266  HIT %:    81.9667  MISS %:    18.0333   MPKI: 1.22133
LLC COMMIT LOAD NON_SPEC    ACCESS:      41799  HIT:       5285  MISS:      36514  HIT %:    12.6438  MISS %:    87.3562   MPKI: 0.18257
LLC LOAD TRANSLATION NON_SPEC    ACCESS:      14167  HIT:          0  MISS:      14167  HIT %:          0  MISS %:        100   MPKI: 0.070835
LLC TRANSLATION FROM L1D PREFETCHER NON_SPEC    ACCESS:       5005  HIT:        104  MISS:       4901  HIT %:    2.07792  MISS %:    97.9221   MPKI: 0.024505
LLC PREFETCH  REQUESTED:          0  ISSUED:          0  USEFUL:       5660  USELESS:    2103005
LLC USEFUL LOAD PREFETCHES:       5660 PREFETCH ISSUED TO LOWER LEVEL:    2107868  ACCURACY: 0.268518
LLC TIMELY PREFETCHES:       5660 LATE PREFETCHES: 0 DROPPED PREFETCHES: 0
LLC COMMIT LATE PREFETCHES: 0 MISSED OPPORTUNITY: 0 LATE IN PQ: 0 UNCOVERED: 0
LLC COMMIT LATE MSHR PREFETCHES: 0
LLC MPKI TOTAL: 1.75568 MSHR LATE: 0 PQ LATE: 0 COMMIT LATE: 0 MISSED OPPORTUNITY: 0 UNCOVERED: 0
LLC PREFETCHES SAME FILL-ORIGIN LEVEL: 0 DIFFERENT FILL-ORIGIN LEVEL: 0
LLC AVERAGE MISS LATENCY: 533.405 cycles
LLC AVERAGE MISS LATENCY LOAD: 499.237 cycles
LLC AVERAGE MISS LATENCY PREFETCH: 511.531 cycles
LLC AVERAGE MSHR OCCUPANCY: 11.8477
LLC MSHR FULL: 0
LLC RQ	ACCESS:    7701303	FORWARD:          0	MERGED:          0	TO_CACHE:    7701250
LLC WQ	ACCESS:    8645379	FORWARD:         53	MERGED:          0	TO_CACHE:    8645379
LLC PQ	ACCESS:    2114697	FORWARD:          0	MERGED:          0	TO_CACHE:    2114697

LLC Dense regions hint to LLC: 0

RAW hits: 2222153
Loads Generated: 52249204
Loads sent to L1D: 50027049
Stores Generated: 36967898
Stores sent to L1D: 36967904
Major fault: 0 Minor fault: 96698
Allocated PAGES: 96698
Total Load insts: 61551593
Total Non-spec loads: 3707286
Percentage of speculative loads: 93.9769

LeapFrogging counter: 28474251
Commit hits: 18296092 miss: 28420186
Commit hit %: 39.1643 miss %: 60.8357
Commits not translated: 0
Loads retired: 1522836
Stores retired: 36967904
Cache fills: 1522836
L1D response latency: 289.89 cycles
Load retirement latency: 1001.62 cycles
OOO test counter: 0
Discarded buffer inserts: 18296092 hits: 322944 hit %: 1.7651
Filter prediction accuracy: 99.4335
ALL MISSES SIZE: 72183
LATENCY_FILL: 186.608 1519031
LATENCY_FILL_ROB: 381.703 1475704
test counter pref: 15665876
Max ROB Extended: 9

DRAM Statistics
 CHANNEL 0
 RQ ROW_BUFFER_HIT:    1133798  ROW_BUFFER_MISS:    8558155
 DBUS_CONGESTED:         51
 WQ ROW_BUFFER_HIT:    1896943  ROW_BUFFER_MISS:    6636638  FULL:       2158

 AVG_CONGESTED_CYCLE: 4
 All warmup complete: 2
Channel 0 Bank busy for read cycles: 0
Channel 0 Bank busy for write cycles: 0
Channel 0
Rank 0
0banks busy for read cycles: 82166157
0banks busy for write cycles: 48148
1banks busy for read cycles: 9792699
1banks busy for write cycles: 5025467
2banks busy for read cycles: 10449302
2banks busy for write cycles: 4000499
3banks busy for read cycles: 15788740
3banks busy for write cycles: 3632900
4banks busy for read cycles: 21925777
4banks busy for write cycles: 3571033
5banks busy for read cycles: 39756927
5banks busy for write cycles: 3669459
6banks busy for read cycles: 50327825
6banks busy for write cycles: 4291582
7banks busy for read cycles: 58484676
7banks busy for write cycles: 13167404
8banks busy for read cycles: 54065081
8banks busy for write cycles: 148845266

CPU 0 Branch Prediction Accuracy: 97.0917% MPKI: 0.525585 Average ROB Occupancy at Mispredict: 170.076
Branch types
NOT_BRANCH: 196385330 98.1927%
BRANCH_DIRECT_JUMP: 592790 0.296395%
BRANCH_INDIRECT: 0 0%
BRANCH_CONDITIONAL: 3021643 1.51082%
BRANCH_DIRECT_CALL: 0 0%
BRANCH_INDIRECT_CALL: 0 0%
BRANCH_RETURN: 0 0%
BRANCH_OTHER: 0 0%

DRAM PAGES: 1048576
Allocated PAGES: 96698
