
*** ChampSim Multicore Out-of-Order Simulator ***

Warmup Instructions: 50000000
Simulation Instructions: 200000000
Number of CPUs: 1
LLC sets: 2048
LLC ways: 16
L0D sets: 16
L0D ways: 2
ROB size: 352
LQ size: 128
SQ size: 72
Secure Berti: ON
Berti: ON
Berti Fill: ON
On commit prefetching: OFF
Hit-based filter: ON
Time-guarding: ON
Free-slotting: ON
Leap-frogging: ON
Train prefetcher on L0D bypass: OFF
No translation penalty for prefetchers: OFF
Prefetch to L0D only: OFF
Prefetch to L1D only: OFF
Clean evictions: ON
Commit loads: ON
Commit write: ON
Fill commit loads to L2C, LLC: ON
DRAM IO FREQUENCY: 6400
ROB SIZE: 352
Off-chip DRAM Size: 4096 MB Channels: 1 Width: 64-bit Data Rate: 6400 MT/s
CPU 0 runs /home/sumon/secure_berti/GhostMinion/../../traces/spec/620.omnetpp_s-141B.champsimtrace.xz
.xz
BTB has LRU replacement policy
ITLB has LRU replacement policy
DTLB has LRU replacement policy
STLB has LRU replacement policy
L1I has LRU replacement policy
L0D has LRU replacement policy
Berti version on_commit
History Sets: 8
History Ways: 16
BERTI Size: 16
BERTI Stride Size: 16
L1D has LRU replacement policy
L2C has LRU replacement policy
LLC has LRU replacement policy
Heartbeat CPU 0 instructions: 10000000 cycles: 7997240 heartbeat IPC: 1.25043 cumulative IPC: 1.25043 (Simulation time: 0 hr 0 min 50 sec) 
Heartbeat CPU 0 instructions: 20000001 cycles: 16040855 heartbeat IPC: 1.24322 cumulative IPC: 1.24682 (Simulation time: 0 hr 1 min 40 sec) 
Heartbeat CPU 0 instructions: 30000000 cycles: 24101262 heartbeat IPC: 1.24063 cumulative IPC: 1.24475 (Simulation time: 0 hr 2 min 29 sec) 
Heartbeat CPU 0 instructions: 40000000 cycles: 32129528 heartbeat IPC: 1.2456 cumulative IPC: 1.24496 (Simulation time: 0 hr 3 min 17 sec) 
Heartbeat CPU 0 instructions: 50000003 cycles: 40204695 heartbeat IPC: 1.23836 cumulative IPC: 1.24364 (Simulation time: 0 hr 4 min 4 sec) 

Warmup complete CPU 0 instructions: 50000003 cycles: 40204695 (Simulation time: 0 hr 4 min 4 sec) 

Heartbeat CPU 0 instructions: 60000001 cycles: 82407044 heartbeat IPC: 0.236954 cumulative IPC: 0.236954 (Simulation time: 0 hr 4 min 59 sec) 
Heartbeat CPU 0 instructions: 70000000 cycles: 125061336 heartbeat IPC: 0.234443 cumulative IPC: 0.235692 (Simulation time: 0 hr 5 min 55 sec) 
Heartbeat CPU 0 instructions: 80000003 cycles: 167415343 heartbeat IPC: 0.236105 cumulative IPC: 0.235829 (Simulation time: 0 hr 6 min 52 sec) 
Heartbeat CPU 0 instructions: 90000003 cycles: 209888199 heartbeat IPC: 0.235444 cumulative IPC: 0.235733 (Simulation time: 0 hr 7 min 47 sec) 
Heartbeat CPU 0 instructions: 100000003 cycles: 251939066 heartbeat IPC: 0.237807 cumulative IPC: 0.236145 (Simulation time: 0 hr 8 min 43 sec) 
Heartbeat CPU 0 instructions: 110000000 cycles: 294257572 heartbeat IPC: 0.236303 cumulative IPC: 0.236171 (Simulation time: 0 hr 9 min 38 sec) 
Heartbeat CPU 0 instructions: 120000000 cycles: 336359969 heartbeat IPC: 0.237516 cumulative IPC: 0.236362 (Simulation time: 0 hr 10 min 32 sec) 
Heartbeat CPU 0 instructions: 130000000 cycles: 378606260 heartbeat IPC: 0.236707 cumulative IPC: 0.236406 (Simulation time: 0 hr 11 min 28 sec) 
Heartbeat CPU 0 instructions: 140000000 cycles: 420831302 heartbeat IPC: 0.236826 cumulative IPC: 0.236452 (Simulation time: 0 hr 12 min 24 sec) 
Heartbeat CPU 0 instructions: 150000003 cycles: 463476048 heartbeat IPC: 0.234496 cumulative IPC: 0.236255 (Simulation time: 0 hr 13 min 20 sec) 
Heartbeat CPU 0 instructions: 160000001 cycles: 505789249 heartbeat IPC: 0.236333 cumulative IPC: 0.236262 (Simulation time: 0 hr 14 min 16 sec) 
Heartbeat CPU 0 instructions: 170000000 cycles: 547817584 heartbeat IPC: 0.237935 cumulative IPC: 0.236401 (Simulation time: 0 hr 15 min 11 sec) 
Heartbeat CPU 0 instructions: 180000000 cycles: 589896352 heartbeat IPC: 0.23765 cumulative IPC: 0.236496 (Simulation time: 0 hr 16 min 5 sec) 
Heartbeat CPU 0 instructions: 190000000 cycles: 631814597 heartbeat IPC: 0.23856 cumulative IPC: 0.236642 (Simulation time: 0 hr 17 min 49 sec) 
Heartbeat CPU 0 instructions: 200000000 cycles: 674698018 heartbeat IPC: 0.23319 cumulative IPC: 0.236409 (Simulation time: 0 hr 19 min 40 sec) 
Heartbeat CPU 0 instructions: 210000000 cycles: 717121560 heartbeat IPC: 0.235718 cumulative IPC: 0.236366 (Simulation time: 0 hr 21 min 28 sec) 
Heartbeat CPU 0 instructions: 220000000 cycles: 759795060 heartbeat IPC: 0.234337 cumulative IPC: 0.236246 (Simulation time: 0 hr 23 min 11 sec) 
Heartbeat CPU 0 instructions: 230000001 cycles: 802170890 heartbeat IPC: 0.235984 cumulative IPC: 0.236231 (Simulation time: 0 hr 24 min 52 sec) 
Heartbeat CPU 0 instructions: 240000001 cycles: 844586233 heartbeat IPC: 0.235764 cumulative IPC: 0.236206 (Simulation time: 0 hr 26 min 31 sec) 
Heartbeat CPU 0 instructions: 250000000 cycles: 886188035 heartbeat IPC: 0.240374 cumulative IPC: 0.236411 (Simulation time: 0 hr 27 min 37 sec) 
Finished CPU 0 instructions: 200000001 cycles: 845983341 cumulative IPC: 0.236411 (Simulation time: 0 hr 27 min 37 sec) 
 Instruction ID: 250000041

ChampSim completed all CPUs

Region of Interest Statistics

CPU 0 cumulative IPC: 0.236411 instructions: 200000001 cycles: 845983341
ITLB SPEC fills:          0  NON-SPEC fills:          0
ITLB Test counter :          0
ITLB Leapfrog:          0
ITLB MSHR merge:          0
ITLB TOTAL     ACCESS:   33302204  HIT:   32990100  MISS:     312104  HIT %:    99.0628  MISS %:   0.937187   MPKI: 1.56052
ITLB LOAD TRANSLATION NON_SPEC    ACCESS:   33302204  HIT:   32990100  MISS:     312104  HIT %:    99.0628  MISS %:   0.937187   MPKI: 1.56052
ITLB PREFETCH  REQUESTED:          0  ISSUED:          0  USEFUL:          0  USELESS:          0
ITLB USEFUL LOAD PREFETCHES:          0 PREFETCH ISSUED TO LOWER LEVEL:          0  ACCURACY: -nan
ITLB TIMELY PREFETCHES:          0 LATE PREFETCHES: 0 DROPPED PREFETCHES: 0
ITLB COMMIT LATE PREFETCHES: 0 MISSED OPPORTUNITY: 0 LATE IN PQ: 0 UNCOVERED: 0
ITLB COMMIT LATE MSHR PREFETCHES: 0
ITLB MPKI TOTAL: 0 MSHR LATE: 0 PQ LATE: 0 COMMIT LATE: 0 MISSED OPPORTUNITY: 0 UNCOVERED: 0
ITLB PREFETCHES SAME FILL-ORIGIN LEVEL: 0 DIFFERENT FILL-ORIGIN LEVEL: 0
ITLB AVERAGE MISS LATENCY: 10.1902 cycles
ITLB AVERAGE MISS LATENCY LOAD: -nan cycles
ITLB AVERAGE MISS LATENCY PREFETCH: -nan cycles
ITLB AVERAGE MSHR OCCUPANCY: 0.00922703
ITLB MSHR FULL: 0
ITLB RQ	ACCESS:   37446124	FORWARD:          0	MERGED:    4061384	TO_CACHE:   33384740

DTLB SPEC fills:          0  NON-SPEC fills:          0
DTLB Test counter :          0
DTLB Leapfrog:          0
DTLB MSHR merge:          0
DTLB TOTAL     ACCESS:   81632635  HIT:   77468329  MISS:    4164306  HIT %:    94.8987  MISS %:    5.10128   MPKI: 20.8215
DTLB LOAD TRANSLATION NON_SPEC    ACCESS:   81632635  HIT:   77468329  MISS:    4164306  HIT %:    94.8987  MISS %:    5.10128   MPKI: 20.8215
DTLB PREFETCH  REQUESTED:          0  ISSUED:          0  USEFUL:          0  USELESS:          0
DTLB USEFUL LOAD PREFETCHES:          0 PREFETCH ISSUED TO LOWER LEVEL:          0  ACCURACY: -nan
DTLB TIMELY PREFETCHES:          0 LATE PREFETCHES: 0 DROPPED PREFETCHES: 0
DTLB COMMIT LATE PREFETCHES: 0 MISSED OPPORTUNITY: 0 LATE IN PQ: 0 UNCOVERED: 0
DTLB COMMIT LATE MSHR PREFETCHES: 0
DTLB MPKI TOTAL: 0 MSHR LATE: 0 PQ LATE: 0 COMMIT LATE: 0 MISSED OPPORTUNITY: 0 UNCOVERED: 0
DTLB PREFETCHES SAME FILL-ORIGIN LEVEL: 0 DIFFERENT FILL-ORIGIN LEVEL: 0
DTLB AVERAGE MISS LATENCY: 39.6872 cycles
DTLB AVERAGE MISS LATENCY LOAD: -nan cycles
DTLB AVERAGE MISS LATENCY PREFETCH: -nan cycles
DTLB AVERAGE MSHR OCCUPANCY: 0.131305
DTLB MSHR FULL: 3.60406e-05
DTLB RQ	ACCESS:   92558209	FORWARD:          0	MERGED:   10819794	TO_CACHE:   81738415

STLB SPEC fills:          0  NON-SPEC fills:          0
STLB Test counter :          0
STLB Leapfrog:          0
STLB MSHR merge:          0
STLB TOTAL     ACCESS:    4628273  HIT:    3643384  MISS:     984889  HIT %:    78.7202  MISS %:    21.2798   MPKI: 4.92444
STLB LOAD TRANSLATION NON_SPEC    ACCESS:    4476410  HIT:    3512841  MISS:     963569  HIT %:    78.4745  MISS %:    21.5255   MPKI: 4.81784
STLB TRANSLATION FROM L1D PREFETCHER NON_SPEC    ACCESS:     151863  HIT:     130543  MISS:      21320  HIT %:     85.961  MISS %:     14.039   MPKI: 0.1066
STLB PREFETCH  REQUESTED:          0  ISSUED:          0  USEFUL:      15229  USELESS:       6106
STLB USEFUL LOAD PREFETCHES:      15229 PREFETCH ISSUED TO LOWER LEVEL:          0  ACCURACY: inf
STLB TIMELY PREFETCHES:      15229 LATE PREFETCHES: 8 DROPPED PREFETCHES: 48887
STLB COMMIT LATE PREFETCHES: 0 MISSED OPPORTUNITY: 0 LATE IN PQ: 0 UNCOVERED: 0
STLB COMMIT LATE MSHR PREFETCHES: 0
STLB MPKI TOTAL: 0 MSHR LATE: 4e-05 PQ LATE: 0 COMMIT LATE: 0 MISSED OPPORTUNITY: 0 UNCOVERED: 0
STLB PREFETCHES SAME FILL-ORIGIN LEVEL: 0 DIFFERENT FILL-ORIGIN LEVEL: 0
STLB AVERAGE MISS LATENCY: 132.427 cycles
STLB AVERAGE MISS LATENCY LOAD: -nan cycles
STLB AVERAGE MISS LATENCY PREFETCH: -nan cycles
STLB AVERAGE MSHR OCCUPANCY: 0.125313
STLB MSHR FULL: 0
STLB RQ	ACCESS:    4762915	FORWARD:          0	MERGED:      85101	TO_CACHE:    4677814

STLB Hit, L1D data hit: 0
STLB Hit, L2C data hit: 0
STLB Hit, LLC data hit: 0
STLB Hit, LLC data miss: 0
STLB STLB hints to L2: 0
L0D SPEC fills:   23205790  NON-SPEC fills:          0
L0D TimeGuard Request with older TS:     267201 Restricted eviction:     140749 read:     303609
L0D Test counter :          0
L0D Leapfrog:          0
L0D MSHR merge:    1011689
L0D TOTAL     ACCESS:   54401419  HIT:    6924516  MISS:   47476903  HIT %:    12.7286  MISS %:    87.2714   MPKI: 237.385
L0D LOAD      TOTAL       ACCESS:   54401419  HIT:    6924516  MISS:   47476903  HIT %:    12.7286  MISS %:    87.2714   MPKI: 237.385
L0D LOAD      NON_SPEC    ACCESS:   24340988  HIT:     210616  MISS:   24130372  HIT %:   0.865273  MISS %:    99.1347   MPKI: 120.652
L0D LOAD      SPEC        ACCESS:   30060431  HIT:    6713900  MISS:   23346531  HIT %:    22.3347  MISS %:    77.6653   MPKI: 116.733
L0D PREFETCH  REQUESTED:          0  ISSUED:          0  USEFUL:          0  USELESS:          0
L0D USEFUL LOAD PREFETCHES:          0 PREFETCH ISSUED TO LOWER LEVEL:          0  ACCURACY: -nan
L0D TIMELY PREFETCHES:          0 LATE PREFETCHES: 0 DROPPED PREFETCHES: 0
L0D COMMIT LATE PREFETCHES: 0 MISSED OPPORTUNITY: 0 LATE IN PQ: 0 UNCOVERED: 0
L0D COMMIT LATE MSHR PREFETCHES: 0
L0D MPKI TOTAL: 242.443 MSHR LATE: 0 PQ LATE: 0 COMMIT LATE: 0 MISSED OPPORTUNITY: 0 UNCOVERED: 0
L0D PREFETCHES SAME FILL-ORIGIN LEVEL: 0 DIFFERENT FILL-ORIGIN LEVEL: 0
L0D AVERAGE MISS LATENCY: 12.8378 cycles
L0D AVERAGE MISS LATENCY LOAD: 12.8378 cycles
L0D AVERAGE MISS LATENCY PREFETCH: -nan cycles
L0D AVERAGE MSHR OCCUPANCY: 0.547822
L0D MSHR FULL: 3.16703e-05
L0D RQ	ACCESS:   63414030	FORWARD:          0	MERGED:    8000928	TO_CACHE:   55413102
L0D WQ	ACCESS:   37145107	FORWARD:          0	MERGED:          0	TO_CACHE:   37145107

L1D SPEC fills:          0  NON-SPEC fills:     640294
L1D Test counter :    2698818
L1D Leapfrog:          0
L1D MSHR merge:      25588
L1D TOTAL     ACCESS:   87685977  HIT:   81123196  MISS:    6562781  HIT %:    92.5156  MISS %:    7.48441   MPKI: 32.8139
L1D LOAD      TOTAL       ACCESS:   47451315  HIT:   44068485  MISS:    3382830  HIT %:    92.8709  MISS %:    7.12905   MPKI: 16.9141
L1D LOAD      NON_SPEC    ACCESS:   24122189  HIT:   23481895  MISS:     640294  HIT %:    97.3456  MISS %:    2.65438   MPKI: 3.20147
L1D LOAD      SPEC        ACCESS:   23329126  HIT:   20586590  MISS:    2742536  HIT %:    88.2442  MISS %:    11.7558   MPKI: 13.7127
L1D RFO       NON_SPEC    ACCESS:   35848607  HIT:   35386455  MISS:     462152  HIT %:    98.7108  MISS %:    1.28918   MPKI: 2.31076
L1D PREFETCH  NON_SPEC    ACCESS:      70187  HIT:      62012  MISS:       8175  HIT %:    88.3525  MISS %:    11.6475   MPKI: 0.040875
L1D COMMIT LOAD NON_SPEC    ACCESS:    1556428  HIT:    1543520  MISS:      12908  HIT %:    99.1707  MISS %:   0.829335   MPKI: 0.06454
L1D COMMIT WRITE NON_SPEC    ACCESS:    2759440  HIT:      62724  MISS:    2696716  HIT %:    2.27307  MISS %:    97.7269   MPKI: 13.4836
L1D PREFETCH  REQUESTED:     330235  ISSUED:     330226  USEFUL:       5138  USELESS:       3038
L1D USEFUL LOAD PREFETCHES:       5138 PREFETCH ISSUED TO LOWER LEVEL:     168607  ACCURACY: 3.04732
L1D TIMELY PREFETCHES:       5138 LATE PREFETCHES: 0 DROPPED PREFETCHES: 55768
L1D COMMIT LATE PREFETCHES: 0 MISSED OPPORTUNITY: 0 LATE IN PQ: 0 UNCOVERED: 0
L1D COMMIT LATE MSHR PREFETCHES: 0
L1D MPKI TOTAL: 17.0421 MSHR LATE: 0 PQ LATE: 0 COMMIT LATE: 0 MISSED OPPORTUNITY: 0 UNCOVERED: 0
L1D PREFETCHES SAME FILL-ORIGIN LEVEL: 8175 DIFFERENT FILL-ORIGIN LEVEL: 160432
L1D AVERAGE MISS LATENCY: 65.2897 cycles
L1D AVERAGE MISS LATENCY LOAD: 108.595 cycles
L1D AVERAGE MISS LATENCY PREFETCH: 92.8731 cycles
L1D AVERAGE MSHR OCCUPANCY: 0.252242
L1D MSHR FULL: 0
L1D RQ	ACCESS:   49391085	FORWARD:          0	MERGED:     306705	TO_CACHE:   49034136
L1D WQ	ACCESS:   39907494	FORWARD:      50244	MERGED:     362256	TO_CACHE:   39545238
L1D PQ	ACCESS:     330226	FORWARD:          0	MERGED:      43721	TO_CACHE:     286505

L1D UNIQUE REGIONS ACCESSED: 0
L1D REGIONS CONFLICTS: 0
L1D Cross Page Prefetch Requests: 183790
L1D Same Page Prefetch Requests: 233627
L1D ROI Sum of L1D PQ occupancy: 13362490
L1D PREFETCHES PUSHED FROM L2C: 0
L1I SPEC fills:          0  NON-SPEC fills:          0
L1I Test counter :          0
L1I Leapfrog:          0
L1I MSHR merge:      37638
L1I TOTAL     ACCESS:   37408487  HIT:   37287549  MISS:     120938  HIT %:    99.6767  MISS %:    0.32329   MPKI: 0.60469
L1I LOAD      TOTAL       ACCESS:   37408487  HIT:   37287549  MISS:     120938  HIT %:    99.6767  MISS %:    0.32329   MPKI: 0.60469
L1I LOAD      NON_SPEC    ACCESS:   37408487  HIT:   37287549  MISS:     120938  HIT %:    99.6767  MISS %:    0.32329   MPKI: 0.60469
L1I PREFETCH  REQUESTED:          0  ISSUED:          0  USEFUL:          0  USELESS:          0
L1I USEFUL LOAD PREFETCHES:          0 PREFETCH ISSUED TO LOWER LEVEL:          0  ACCURACY: -nan
L1I TIMELY PREFETCHES:          0 LATE PREFETCHES: 0 DROPPED PREFETCHES: 0
L1I COMMIT LATE PREFETCHES: 0 MISSED OPPORTUNITY: 0 LATE IN PQ: 0 UNCOVERED: 0
L1I COMMIT LATE MSHR PREFETCHES: 0
L1I MPKI TOTAL: 0.79288 MSHR LATE: 0 PQ LATE: 0 COMMIT LATE: 0 MISSED OPPORTUNITY: 0 UNCOVERED: 0
L1I PREFETCHES SAME FILL-ORIGIN LEVEL: 0 DIFFERENT FILL-ORIGIN LEVEL: 0
L1I AVERAGE MISS LATENCY: 27.1608 cycles
L1I AVERAGE MISS LATENCY LOAD: 27.1608 cycles
L1I AVERAGE MISS LATENCY PREFETCH: -nan cycles
L1I AVERAGE MSHR OCCUPANCY: 0.00491031
L1I MSHR FULL: 0
L1I RQ	ACCESS:   56566541	FORWARD:          0	MERGED:   19120417	TO_CACHE:   37446124

BTB SPEC fills:          0  NON-SPEC fills:          0
BTB Test counter :          0
BTB Leapfrog:          0
BTB MSHR merge:          0
BTB TOTAL     ACCESS:   32873214  HIT:   30947951  MISS:    1925263  HIT %:    94.1434  MISS %:    5.85663   MPKI: 9.62631
BTB BRANCH_DIRECT_JUMP	ACCESS:    2330259  HIT:    2330115  MISS:        144
BTB BRANCH_INDIRECT	ACCESS:     674228  HIT:     571149  MISS:     103079
BTB BRANCH_CONDITIONAL	ACCESS:   17721648  HIT:   17721119  MISS:        529
BTB BRANCH_DIRECT_CALL	ACCESS:    3701835  HIT:    3701543  MISS:        292
BTB BRANCH_INDIRECT_CALL	ACCESS:    2371706  HIT:    2363088  MISS:       8618
BTB BRANCH_RETURN	ACCESS:    6073538  HIT:    4260937  MISS:    1812601
BTB BRANCH_OTHER ACCESS:          0  HIT:          0  MISS:          0

L2C SPEC fills:          0  NON-SPEC fills:     420044
L2C Test counter :    2054856
L2C Leapfrog:          0
L2C MSHR merge:        296
L2C TOTAL     ACCESS:   12677451  HIT:    7155852  MISS:    5521599  HIT %:    56.4455  MISS %:    43.5545   MPKI: 27.608
L2C LOAD      TOTAL       ACCESS:    3503547  HIT:    1070036  MISS:    2433511  HIT %:    30.5415  MISS %:    69.4585   MPKI: 12.1676
L2C LOAD      NON_SPEC    ACCESS:     761186  HIT:     321188  MISS:     439998  HIT %:    42.1957  MISS %:    57.8043   MPKI: 2.19999
L2C LOAD      SPEC        ACCESS:    2742361  HIT:     748848  MISS:    1993513  HIT %:    27.3067  MISS %:    72.6933   MPKI: 9.96756
L2C RFO       NON_SPEC    ACCESS:     462021  HIT:      79924  MISS:     382097  HIT %:    17.2988  MISS %:    82.7012   MPKI: 1.91048
L2C PREFETCH  NON_SPEC    ACCESS:     167241  HIT:      40100  MISS:     127141  HIT %:    23.9774  MISS %:    76.0226   MPKI: 0.635705
L2C WRITEBACK NON_SPEC    ACCESS:     664170  HIT:     662804  MISS:       1366  HIT %:    99.7943  MISS %:    0.20567   MPKI: 0.00683
L2C CLEAN_EVICTION NON_SPEC    ACCESS:    2698818  HIT:     704303  MISS:    1994515  HIT %:    26.0967  MISS %:    73.9033   MPKI: 9.97257
L2C COMMIT LOAD NON_SPEC    ACCESS:      12908  HIT:       7329  MISS:       5579  HIT %:    56.7787  MISS %:    43.2213   MPKI: 0.027895
L2C LOAD TRANSLATION NON_SPEC    ACCESS:    4817805  HIT:    4244249  MISS:     573556  HIT %:    88.0951  MISS %:    11.9049   MPKI: 2.86778
L2C TRANSLATION FROM L1D PREFETCHER NON_SPEC    ACCESS:     350941  HIT:     347107  MISS:       3834  HIT %:    98.9075  MISS %:    1.09249   MPKI: 0.01917
L2C PREFETCH  REQUESTED:          0  ISSUED:          0  USEFUL:      36641  USELESS:      94439
L2C USEFUL LOAD PREFETCHES:      36641 PREFETCH ISSUED TO LOWER LEVEL:     127437  ACCURACY: 28.7522
L2C TIMELY PREFETCHES:      36641 LATE PREFETCHES: 296 DROPPED PREFETCHES: 0
L2C COMMIT LATE PREFETCHES: 0 MISSED OPPORTUNITY: 0 LATE IN PQ: 0 UNCOVERED: 0
L2C COMMIT LATE MSHR PREFETCHES: 0
L2C MPKI TOTAL: 12.1676 MSHR LATE: 0.00148 PQ LATE: 0 COMMIT LATE: 0 MISSED OPPORTUNITY: 0 UNCOVERED: 0
L2C PREFETCHES SAME FILL-ORIGIN LEVEL: 124149 DIFFERENT FILL-ORIGIN LEVEL: 0
L2C AVERAGE MISS LATENCY: 82.2279 cycles
L2C AVERAGE MISS LATENCY LOAD: 135.133 cycles
L2C AVERAGE MISS LATENCY PREFETCH: 182.297 cycles
L2C AVERAGE MSHR OCCUPANCY: 0.39614
L2C MSHR FULL: 0
L2C RQ	ACCESS:    9147574	FORWARD:          0	MERGED:          0	TO_CACHE:    9147222
L2C WQ	ACCESS:    3362989	FORWARD:        353	MERGED:          1	TO_CACHE:    3362988
L2C PQ	ACCESS:     168607	FORWARD:          0	MERGED:          0	TO_CACHE:     168606

L2C Instructions Evicting Data 16370
L2C Translations Evicting Data 483365
L2C Data Evicting Data 775461
L2C Instructions Evicting Instructions 443
L2C Translations Evicting Instructions 3147
L2C Data Evicting Instructions 5283
L2C Instructions Evicting Translations 3141
L2C Translations Evicting Translations 90878
L2C Data Evicting Translations 154117
L2C Dense regions hint from L2: 0
PSCL5 SPEC fills:          0  NON-SPEC fills:          0
PSCL5 Test counter :          0
PSCL5 Leapfrog:          0
PSCL5 MSHR merge:          0
PSCL5 TOTAL     ACCESS:          0  HIT:          0  MISS:          0  HIT %:       -nan  MISS %:       -nan   MPKI: 0
PSCL5 PREFETCH  REQUESTED:          0  ISSUED:          0  USEFUL:          0  USELESS:          0
PSCL5 USEFUL LOAD PREFETCHES:          0 PREFETCH ISSUED TO LOWER LEVEL:          0  ACCURACY: -nan
PSCL5 TIMELY PREFETCHES:          0 LATE PREFETCHES: 0 DROPPED PREFETCHES: 0
PSCL5 COMMIT LATE PREFETCHES: 0 MISSED OPPORTUNITY: 0 LATE IN PQ: 0 UNCOVERED: 0
PSCL5 COMMIT LATE MSHR PREFETCHES: 0
PSCL5 MPKI TOTAL: 0 MSHR LATE: 0 PQ LATE: 0 COMMIT LATE: 0 MISSED OPPORTUNITY: 0 UNCOVERED: 0
PSCL5 PREFETCHES SAME FILL-ORIGIN LEVEL: 0 DIFFERENT FILL-ORIGIN LEVEL: 0

PSCL4 SPEC fills:          0  NON-SPEC fills:          0
PSCL4 Test counter :          0
PSCL4 Leapfrog:          0
PSCL4 MSHR merge:          0
PSCL4 TOTAL     ACCESS:          0  HIT:          0  MISS:          0  HIT %:       -nan  MISS %:       -nan   MPKI: 0
PSCL4 PREFETCH  REQUESTED:          0  ISSUED:          0  USEFUL:          0  USELESS:          0
PSCL4 USEFUL LOAD PREFETCHES:          0 PREFETCH ISSUED TO LOWER LEVEL:          0  ACCURACY: -nan
PSCL4 TIMELY PREFETCHES:          0 LATE PREFETCHES: 0 DROPPED PREFETCHES: 0
PSCL4 COMMIT LATE PREFETCHES: 0 MISSED OPPORTUNITY: 0 LATE IN PQ: 0 UNCOVERED: 0
PSCL4 COMMIT LATE MSHR PREFETCHES: 0
PSCL4 MPKI TOTAL: 0 MSHR LATE: 0 PQ LATE: 0 COMMIT LATE: 0 MISSED OPPORTUNITY: 0 UNCOVERED: 0
PSCL4 PREFETCHES SAME FILL-ORIGIN LEVEL: 0 DIFFERENT FILL-ORIGIN LEVEL: 0

PSCL3 SPEC fills:          0  NON-SPEC fills:          0
PSCL3 Test counter :          0
PSCL3 Leapfrog:          0
PSCL3 MSHR merge:          0
PSCL3 TOTAL     ACCESS:          0  HIT:          0  MISS:          0  HIT %:       -nan  MISS %:       -nan   MPKI: 0
PSCL3 PREFETCH  REQUESTED:          0  ISSUED:          0  USEFUL:          0  USELESS:          0
PSCL3 USEFUL LOAD PREFETCHES:          0 PREFETCH ISSUED TO LOWER LEVEL:          0  ACCURACY: -nan
PSCL3 TIMELY PREFETCHES:          0 LATE PREFETCHES: 0 DROPPED PREFETCHES: 0
PSCL3 COMMIT LATE PREFETCHES: 0 MISSED OPPORTUNITY: 0 LATE IN PQ: 0 UNCOVERED: 0
PSCL3 COMMIT LATE MSHR PREFETCHES: 0
PSCL3 MPKI TOTAL: 0 MSHR LATE: 0 PQ LATE: 0 COMMIT LATE: 0 MISSED OPPORTUNITY: 0 UNCOVERED: 0
PSCL3 PREFETCHES SAME FILL-ORIGIN LEVEL: 0 DIFFERENT FILL-ORIGIN LEVEL: 0

PSCL2 SPEC fills:          0  NON-SPEC fills:          0
PSCL2 Test counter :          0
PSCL2 Leapfrog:          0
PSCL2 MSHR merge:          0
PSCL2 TOTAL     ACCESS:          0  HIT:          0  MISS:          0  HIT %:       -nan  MISS %:       -nan   MPKI: 0
PSCL2 PREFETCH  REQUESTED:          0  ISSUED:          0  USEFUL:          0  USELESS:          0
PSCL2 USEFUL LOAD PREFETCHES:          0 PREFETCH ISSUED TO LOWER LEVEL:          0  ACCURACY: -nan
PSCL2 TIMELY PREFETCHES:          0 LATE PREFETCHES: 0 DROPPED PREFETCHES: 0
PSCL2 COMMIT LATE PREFETCHES: 0 MISSED OPPORTUNITY: 0 LATE IN PQ: 0 UNCOVERED: 0
PSCL2 COMMIT LATE MSHR PREFETCHES: 0
PSCL2 MPKI TOTAL: 0 MSHR LATE: 0 PQ LATE: 0 COMMIT LATE: 0 MISSED OPPORTUNITY: 0 UNCOVERED: 0
PSCL2 PREFETCHES SAME FILL-ORIGIN LEVEL: 0 DIFFERENT FILL-ORIGIN LEVEL: 0

LLC SPEC fills:          0  NON-SPEC fills:     285790
LLC Test counter :    1631872
LLC Leapfrog:          0
LLC MSHR merge:          0
LLC TOTAL     ACCESS:    6096628  HIT:    2127863  MISS:    3968765  HIT %:    34.9023  MISS %:    65.0977   MPKI: 19.8438
LLC LOAD      TOTAL       ACCESS:    2433211  HIT:     584402  MISS:    1848809  HIT %:    24.0177  MISS %:    75.9823   MPKI: 9.24404
LLC LOAD      NON_SPEC    ACCESS:     439996  HIT:     148468  MISS:     291528  HIT %:     33.743  MISS %:     66.257   MPKI: 1.45764
LLC LOAD      SPEC        ACCESS:    1993215  HIT:     435934  MISS:    1557281  HIT %:    21.8709  MISS %:    78.1291   MPKI: 7.7864
LLC RFO       NON_SPEC    ACCESS:     382095  HIT:     139542  MISS:     242553  HIT %:    36.5202  MISS %:    63.4798   MPKI: 1.21276
LLC PREFETCH  NON_SPEC    ACCESS:     127437  HIT:       4858  MISS:     122579  HIT %:    3.81208  MISS %:    96.1879   MPKI: 0.612895
LLC WRITEBACK NON_SPEC    ACCESS:     516060  HIT:     514954  MISS:       1106  HIT %:    99.7857  MISS %:   0.214316   MPKI: 0.00553
LLC CLEAN_EVICTION NON_SPEC    ACCESS:    2054856  HIT:     485391  MISS:    1569465  HIT %:    23.6217  MISS %:    76.3783   MPKI: 7.84732
LLC COMMIT LOAD NON_SPEC    ACCESS:       5579  HIT:       2793  MISS:       2786  HIT %:    50.0627  MISS %:    49.9373   MPKI: 0.01393
LLC LOAD TRANSLATION NON_SPEC    ACCESS:     573556  HIT:     394071  MISS:     179485  HIT %:    68.7066  MISS %:    31.2934   MPKI: 0.897425
LLC TRANSLATION FROM L1D PREFETCHER NON_SPEC    ACCESS:       3834  HIT:       1852  MISS:       1982  HIT %:    48.3046  MISS %:    51.6954   MPKI: 0.00991
LLC PREFETCH  REQUESTED:          0  ISSUED:          0  USEFUL:       3691  USELESS:     120823
LLC USEFUL LOAD PREFETCHES:       3691 PREFETCH ISSUED TO LOWER LEVEL:     122579  ACCURACY: 3.01112
LLC TIMELY PREFETCHES:       3691 LATE PREFETCHES: 0 DROPPED PREFETCHES: 0
LLC COMMIT LATE PREFETCHES: 0 MISSED OPPORTUNITY: 0 LATE IN PQ: 0 UNCOVERED: 0
LLC COMMIT LATE MSHR PREFETCHES: 0
LLC MPKI TOTAL: 9.24404 MSHR LATE: 0 PQ LATE: 0 COMMIT LATE: 0 MISSED OPPORTUNITY: 0 UNCOVERED: 0
LLC PREFETCHES SAME FILL-ORIGIN LEVEL: 0 DIFFERENT FILL-ORIGIN LEVEL: 0
LLC AVERAGE MISS LATENCY: 92.2717 cycles
LLC AVERAGE MISS LATENCY LOAD: 148.063 cycles
LLC AVERAGE MISS LATENCY PREFETCH: 158.447 cycles
LLC AVERAGE MSHR OCCUPANCY: 0.386387
LLC MSHR FULL: 0
LLC RQ	ACCESS:    3398281	FORWARD:          0	MERGED:          0	TO_CACHE:    3398275
LLC WQ	ACCESS:    2570916	FORWARD:          6	MERGED:          0	TO_CACHE:    2570916
LLC PQ	ACCESS:     127437	FORWARD:          0	MERGED:          0	TO_CACHE:     127437

LLC Dense regions hint to LLC: 0

RAW hits: 3458511
Loads Generated: 66872541
Loads sent to L1D: 63414030
Stores Generated: 37145093
Stores sent to L1D: 37145107
Major fault: 0 Minor fault: 53031
Allocated PAGES: 53031
Total Load insts: 78556552
Total Non-spec loads: 27809690
Percentage of speculative loads: 64.5991

LeapFrogging counter: 608
Commit hits: 23019317 miss: 16000262
Commit hit %: 58.9943 miss %: 41.0057
Commits not translated: 0
Loads retired: 3382830
Stores retired: 37145107
Cache fills: 3382830
L1D response latency: 108.595 cycles
Load retirement latency: 197.031 cycles
OOO test counter: 0
Discarded buffer inserts: 23019317 hits: 21645 hit %: 0.0940297
Filter prediction accuracy: 99.9789
ALL MISSES SIZE: 28314
LATENCY_FILL: 108.209 3400754
LATENCY_FILL_ROB: 148.188 3400799
test counter pref: 14512756
Max ROB Extended: 19

DRAM Statistics
 CHANNEL 0
 RQ ROW_BUFFER_HIT:     177667  ROW_BUFFER_MISS:    2220517
 DBUS_CONGESTED:       1405
 WQ ROW_BUFFER_HIT:     363964  ROW_BUFFER_MISS:    1597423  FULL:          0

 AVG_CONGESTED_CYCLE: 4
 All warmup complete: 2
Channel 0 Bank busy for read cycles: 0
Channel 0 Bank busy for write cycles: 0
Channel 0
Rank 0
0banks busy for read cycles: 370160297
0banks busy for write cycles: 747308
1banks busy for read cycles: 191850984
1banks busy for write cycles: 121719458
2banks busy for read cycles: 48432255
2banks busy for write cycles: 56794491
3banks busy for read cycles: 11829681
3banks busy for write cycles: 24517297
4banks busy for read cycles: 3893510
4banks busy for write cycles: 9854822
5banks busy for read cycles: 314768
5banks busy for write cycles: 3793258
6banks busy for read cycles: 95673
6banks busy for write cycles: 1413094
7banks busy for read cycles: 4969
7banks busy for write cycles: 458736
8banks busy for read cycles: 763
8banks busy for write cycles: 101978

CPU 0 Branch Prediction Accuracy: 98.172% MPKI: 3.83776 Average ROB Occupancy at Mispredict: 36.8435
Branch types
NOT_BRANCH: 158010836 79.0054%
BRANCH_DIRECT_JUMP: 2330259 1.16513%
BRANCH_INDIRECT: 674228 0.337114%
BRANCH_CONDITIONAL: 26837262 13.4186%
BRANCH_DIRECT_CALL: 3701835 1.85092%
BRANCH_INDIRECT_CALL: 2371706 1.18585%
BRANCH_RETURN: 6073538 3.03677%
BRANCH_OTHER: 0 0%

DRAM PAGES: 1048576
Allocated PAGES: 53031
