
*** ChampSim Multicore Out-of-Order Simulator ***

Warmup Instructions: 50000000
Simulation Instructions: 200000000
Number of CPUs: 1
LLC sets: 2048
LLC ways: 16
L0D sets: 16
L0D ways: 2
ROB size: 352
LQ size: 128
SQ size: 72
Secure Berti: ON
Berti: ON
Berti Fill: ON
On commit prefetching: OFF
Hit-based filter: ON
Time-guarding: ON
Free-slotting: ON
Leap-frogging: ON
Train prefetcher on L0D bypass: OFF
No translation penalty for prefetchers: OFF
Prefetch to L0D only: OFF
Prefetch to L1D only: OFF
Clean evictions: ON
Commit loads: ON
Commit write: ON
Fill commit loads to L2C, LLC: ON
DRAM IO FREQUENCY: 6400
ROB SIZE: 352
Off-chip DRAM Size: 4096 MB Channels: 1 Width: 64-bit Data Rate: 6400 MT/s
CPU 0 runs /home/sumon/secure_berti/GhostMinion/../../traces/spec/623.xalancbmk_s-165B.champsimtrace.xz
.xz
BTB has LRU replacement policy
ITLB has LRU replacement policy
DTLB has LRU replacement policy
STLB has LRU replacement policy
L1I has LRU replacement policy
L0D has LRU replacement policy
Berti version on_commit
History Sets: 8
History Ways: 16
BERTI Size: 16
BERTI Stride Size: 16
L1D has LRU replacement policy
L2C has LRU replacement policy
LLC has LRU replacement policy
Heartbeat CPU 0 instructions: 10000000 cycles: 3422605 heartbeat IPC: 2.92175 cumulative IPC: 2.92175 (Simulation time: 0 hr 0 min 35 sec) 
Heartbeat CPU 0 instructions: 20000001 cycles: 6841702 heartbeat IPC: 2.92475 cumulative IPC: 2.92325 (Simulation time: 0 hr 1 min 8 sec) 
Heartbeat CPU 0 instructions: 30000000 cycles: 10236736 heartbeat IPC: 2.94548 cumulative IPC: 2.93062 (Simulation time: 0 hr 1 min 43 sec) 
Heartbeat CPU 0 instructions: 40000003 cycles: 13644500 heartbeat IPC: 2.93448 cumulative IPC: 2.93158 (Simulation time: 0 hr 2 min 15 sec) 
Heartbeat CPU 0 instructions: 50000001 cycles: 17070022 heartbeat IPC: 2.91926 cumulative IPC: 2.92911 (Simulation time: 0 hr 2 min 48 sec) 

Warmup complete CPU 0 instructions: 50000001 cycles: 17070022 (Simulation time: 0 hr 2 min 48 sec) 

Heartbeat CPU 0 instructions: 60000003 cycles: 28505826 heartbeat IPC: 0.874447 cumulative IPC: 0.874447 (Simulation time: 0 hr 3 min 25 sec) 
Heartbeat CPU 0 instructions: 70000001 cycles: 39944453 heartbeat IPC: 0.874231 cumulative IPC: 0.874339 (Simulation time: 0 hr 4 min 1 sec) 
Heartbeat CPU 0 instructions: 80000001 cycles: 51378682 heartbeat IPC: 0.874567 cumulative IPC: 0.874415 (Simulation time: 0 hr 4 min 37 sec) 
Heartbeat CPU 0 instructions: 90000002 cycles: 62815919 heartbeat IPC: 0.874337 cumulative IPC: 0.874395 (Simulation time: 0 hr 5 min 13 sec) 
Heartbeat CPU 0 instructions: 100000001 cycles: 74250443 heartbeat IPC: 0.874544 cumulative IPC: 0.874425 (Simulation time: 0 hr 5 min 50 sec) 
Heartbeat CPU 0 instructions: 110000000 cycles: 85692183 heartbeat IPC: 0.873993 cumulative IPC: 0.874353 (Simulation time: 0 hr 6 min 25 sec) 
Heartbeat CPU 0 instructions: 120000000 cycles: 97123407 heartbeat IPC: 0.874797 cumulative IPC: 0.874416 (Simulation time: 0 hr 7 min 2 sec) 
Heartbeat CPU 0 instructions: 130000002 cycles: 108559135 heartbeat IPC: 0.874453 cumulative IPC: 0.874421 (Simulation time: 0 hr 7 min 38 sec) 
Heartbeat CPU 0 instructions: 140000002 cycles: 119995589 heartbeat IPC: 0.874397 cumulative IPC: 0.874418 (Simulation time: 0 hr 8 min 15 sec) 
Heartbeat CPU 0 instructions: 150000002 cycles: 131430696 heartbeat IPC: 0.8745 cumulative IPC: 0.874426 (Simulation time: 0 hr 8 min 53 sec) 
Heartbeat CPU 0 instructions: 160000000 cycles: 142864933 heartbeat IPC: 0.874566 cumulative IPC: 0.874439 (Simulation time: 0 hr 9 min 30 sec) 
Heartbeat CPU 0 instructions: 170000002 cycles: 154302785 heartbeat IPC: 0.87429 cumulative IPC: 0.874427 (Simulation time: 0 hr 10 min 8 sec) 
Heartbeat CPU 0 instructions: 180000000 cycles: 165739079 heartbeat IPC: 0.874409 cumulative IPC: 0.874425 (Simulation time: 0 hr 10 min 44 sec) 
Heartbeat CPU 0 instructions: 190000002 cycles: 177175865 heartbeat IPC: 0.874372 cumulative IPC: 0.874422 (Simulation time: 0 hr 11 min 22 sec) 
Heartbeat CPU 0 instructions: 200000002 cycles: 188609109 heartbeat IPC: 0.874642 cumulative IPC: 0.874436 (Simulation time: 0 hr 11 min 59 sec) 
Heartbeat CPU 0 instructions: 210000003 cycles: 200046838 heartbeat IPC: 0.8743 cumulative IPC: 0.874428 (Simulation time: 0 hr 12 min 36 sec) 
Heartbeat CPU 0 instructions: 220000000 cycles: 211719581 heartbeat IPC: 0.856696 cumulative IPC: 0.873364 (Simulation time: 0 hr 13 min 12 sec) 
Heartbeat CPU 0 instructions: 230000001 cycles: 222993454 heartbeat IPC: 0.887007 cumulative IPC: 0.874111 (Simulation time: 0 hr 13 min 49 sec) 
Heartbeat CPU 0 instructions: 240000002 cycles: 234069935 heartbeat IPC: 0.902814 cumulative IPC: 0.875576 (Simulation time: 0 hr 14 min 25 sec) 
Heartbeat CPU 0 instructions: 250000002 cycles: 245082530 heartbeat IPC: 0.908051 cumulative IPC: 0.877145 (Simulation time: 0 hr 15 min 1 sec) 
Finished CPU 0 instructions: 200000001 cycles: 228012508 cumulative IPC: 0.877145 (Simulation time: 0 hr 15 min 1 sec) 
 Instruction ID: 250000052

ChampSim completed all CPUs

Region of Interest Statistics

CPU 0 cumulative IPC: 0.877145 instructions: 200000001 cycles: 228012508
ITLB SPEC fills:          0  NON-SPEC fills:          0
ITLB Test counter :          0
ITLB Leapfrog:          0
ITLB MSHR merge:          0
ITLB TOTAL     ACCESS:   28384616  HIT:   28384605  MISS:         11  HIT %:        100  MISS %: 3.87534e-05   MPKI: 5.5e-05
ITLB LOAD TRANSLATION NON_SPEC    ACCESS:   28384616  HIT:   28384605  MISS:         11  HIT %:        100  MISS %: 3.87534e-05   MPKI: 5.5e-05
ITLB PREFETCH  REQUESTED:          0  ISSUED:          0  USEFUL:          0  USELESS:          0
ITLB USEFUL LOAD PREFETCHES:          0 PREFETCH ISSUED TO LOWER LEVEL:          0  ACCURACY: -nan
ITLB TIMELY PREFETCHES:          0 LATE PREFETCHES: 0 DROPPED PREFETCHES: 0
ITLB COMMIT LATE PREFETCHES: 0 MISSED OPPORTUNITY: 0 LATE IN PQ: 0 UNCOVERED: 0
ITLB COMMIT LATE MSHR PREFETCHES: 0
ITLB MPKI TOTAL: 0 MSHR LATE: 0 PQ LATE: 0 COMMIT LATE: 0 MISSED OPPORTUNITY: 0 UNCOVERED: 0
ITLB PREFETCHES SAME FILL-ORIGIN LEVEL: 0 DIFFERENT FILL-ORIGIN LEVEL: 0
ITLB AVERAGE MISS LATENCY: 347.455 cycles
ITLB AVERAGE MISS LATENCY LOAD: -nan cycles
ITLB AVERAGE MISS LATENCY PREFETCH: -nan cycles
ITLB AVERAGE MSHR OCCUPANCY: 0
ITLB MSHR FULL: 0
ITLB RQ	ACCESS:   37103358	FORWARD:          0	MERGED:    8718743	TO_CACHE:   28384615

DTLB SPEC fills:          0  NON-SPEC fills:          0
DTLB Test counter :          0
DTLB Leapfrog:          0
DTLB MSHR merge:          0
DTLB TOTAL     ACCESS:   42974020  HIT:   42908297  MISS:      65723  HIT %:    99.8471  MISS %:   0.152937   MPKI: 0.328615
DTLB LOAD TRANSLATION NON_SPEC    ACCESS:   42974020  HIT:   42908297  MISS:      65723  HIT %:    99.8471  MISS %:   0.152937   MPKI: 0.328615
DTLB PREFETCH  REQUESTED:          0  ISSUED:          0  USEFUL:          0  USELESS:          0
DTLB USEFUL LOAD PREFETCHES:          0 PREFETCH ISSUED TO LOWER LEVEL:          0  ACCURACY: -nan
DTLB TIMELY PREFETCHES:          0 LATE PREFETCHES: 0 DROPPED PREFETCHES: 0
DTLB COMMIT LATE PREFETCHES: 0 MISSED OPPORTUNITY: 0 LATE IN PQ: 0 UNCOVERED: 0
DTLB COMMIT LATE MSHR PREFETCHES: 0
DTLB MPKI TOTAL: 0 MSHR LATE: 0 PQ LATE: 0 COMMIT LATE: 0 MISSED OPPORTUNITY: 0 UNCOVERED: 0
DTLB PREFETCHES SAME FILL-ORIGIN LEVEL: 0 DIFFERENT FILL-ORIGIN LEVEL: 0
DTLB AVERAGE MISS LATENCY: 8.8979 cycles
DTLB AVERAGE MISS LATENCY LOAD: -nan cycles
DTLB AVERAGE MISS LATENCY PREFETCH: -nan cycles
DTLB AVERAGE MSHR OCCUPANCY: 0.000626003
DTLB MSHR FULL: 0
DTLB RQ	ACCESS:   46277464	FORWARD:          0	MERGED:    3303213	TO_CACHE:   42974251

STLB SPEC fills:          0  NON-SPEC fills:          0
STLB Test counter :          0
STLB Leapfrog:          0
STLB MSHR merge:          0
STLB TOTAL     ACCESS:    9459299  HIT:    9458552  MISS:        747  HIT %:    99.9921  MISS %: 0.00789699   MPKI: 0.003735
STLB LOAD TRANSLATION NON_SPEC    ACCESS:      65734  HIT:      64987  MISS:        747  HIT %:    98.8636  MISS %:     1.1364   MPKI: 0.003735
STLB TRANSLATION FROM L1D PREFETCHER NON_SPEC    ACCESS:    9393565  HIT:    9393565  MISS:          0  HIT %:        100  MISS %:          0   MPKI: 0
STLB PREFETCH  REQUESTED:          0  ISSUED:          0  USEFUL:          0  USELESS:          0
STLB USEFUL LOAD PREFETCHES:          0 PREFETCH ISSUED TO LOWER LEVEL:          0  ACCURACY: -nan
STLB TIMELY PREFETCHES:          0 LATE PREFETCHES: 0 DROPPED PREFETCHES: 28832
STLB COMMIT LATE PREFETCHES: 0 MISSED OPPORTUNITY: 0 LATE IN PQ: 0 UNCOVERED: 0
STLB COMMIT LATE MSHR PREFETCHES: 0
STLB MPKI TOTAL: 0 MSHR LATE: 0 PQ LATE: 0 COMMIT LATE: 0 MISSED OPPORTUNITY: 0 UNCOVERED: 0
STLB PREFETCHES SAME FILL-ORIGIN LEVEL: 0 DIFFERENT FILL-ORIGIN LEVEL: 0
STLB AVERAGE MISS LATENCY: 289.185 cycles
STLB AVERAGE MISS LATENCY LOAD: -nan cycles
STLB AVERAGE MISS LATENCY PREFETCH: -nan cycles
STLB AVERAGE MSHR OCCUPANCY: 0.00592288
STLB MSHR FULL: 0
STLB RQ	ACCESS:   29169708	FORWARD:          0	MERGED:   19679898	TO_CACHE:    9489810

STLB Hit, L1D data hit: 0
STLB Hit, L2C data hit: 0
STLB Hit, LLC data hit: 0
STLB Hit, LLC data miss: 0
STLB STLB hints to L2: 0
L0D SPEC fills:   32027334  NON-SPEC fills:          0
L0D TimeGuard Request with older TS:     107380 Restricted eviction:      18255 read:       1230
L0D Test counter :          0
L0D Leapfrog:          0
L0D MSHR merge:    1311655
L0D TOTAL     ACCESS:   41998715  HIT:    4162936  MISS:   37835779  HIT %:    9.91206  MISS %:    90.0879   MPKI: 189.179
L0D LOAD      TOTAL       ACCESS:   41998715  HIT:    4162936  MISS:   37835779  HIT %:    9.91206  MISS %:    90.0879   MPKI: 189.179
L0D LOAD      NON_SPEC    ACCESS:    5955589  HIT:     165399  MISS:    5790190  HIT %:    2.77721  MISS %:    97.2228   MPKI: 28.9509
L0D LOAD      SPEC        ACCESS:   36043126  HIT:    3997537  MISS:   32045589  HIT %:     11.091  MISS %:     88.909   MPKI: 160.228
L0D PREFETCH  REQUESTED:          0  ISSUED:          0  USEFUL:          0  USELESS:          0
L0D USEFUL LOAD PREFETCHES:          0 PREFETCH ISSUED TO LOWER LEVEL:          0  ACCURACY: -nan
L0D TIMELY PREFETCHES:          0 LATE PREFETCHES: 0 DROPPED PREFETCHES: 0
L0D COMMIT LATE PREFETCHES: 0 MISSED OPPORTUNITY: 0 LATE IN PQ: 0 UNCOVERED: 0
L0D COMMIT LATE MSHR PREFETCHES: 0
L0D MPKI TOTAL: 195.737 MSHR LATE: 0 PQ LATE: 0 COMMIT LATE: 0 MISSED OPPORTUNITY: 0 UNCOVERED: 0
L0D PREFETCHES SAME FILL-ORIGIN LEVEL: 0 DIFFERENT FILL-ORIGIN LEVEL: 0
L0D AVERAGE MISS LATENCY: 5.17205 cycles
L0D AVERAGE MISS LATENCY LOAD: 5.17205 cycles
L0D AVERAGE MISS LATENCY PREFETCH: -nan cycles
L0D AVERAGE MSHR OCCUPANCY: 0.468238
L0D MSHR FULL: 0
L0D RQ	ACCESS:   58954086	FORWARD:          0	MERGED:   15643717	TO_CACHE:   43310369
L0D WQ	ACCESS:    2967095	FORWARD:          0	MERGED:          0	TO_CACHE:    2967095

L1D SPEC fills:          0  NON-SPEC fills:      35456
L1D Test counter :     134876
L1D Leapfrog:          0
L1D MSHR merge:       1140
L1D TOTAL     ACCESS:   60538563  HIT:   56113365  MISS:    4425198  HIT %:    92.6903  MISS %:    7.30972   MPKI: 22.126
L1D LOAD      TOTAL       ACCESS:   37835708  HIT:   37664946  MISS:     170762  HIT %:    99.5487  MISS %:   0.451325   MPKI: 0.85381
L1D LOAD      NON_SPEC    ACCESS:    5790178  HIT:    5754722  MISS:      35456  HIT %:    99.3877  MISS %:   0.612347   MPKI: 0.17728
L1D LOAD      SPEC        ACCESS:   32045530  HIT:   31910224  MISS:     135306  HIT %:    99.5778  MISS %:    0.42223   MPKI: 0.67653
L1D RFO       NON_SPEC    ACCESS:    2958238  HIT:    2954481  MISS:       3757  HIT %:     99.873  MISS %:   0.127001   MPKI: 0.018785
L1D PREFETCH  NON_SPEC    ACCESS:   19502539  HIT:   15386104  MISS:    4116435  HIT %:    78.8928  MISS %:    21.1072   MPKI: 20.5822
L1D COMMIT LOAD NON_SPEC    ACCESS:     102457  HIT:     101901  MISS:        556  HIT %:    99.4573  MISS %:   0.542667   MPKI: 0.00278
L1D COMMIT WRITE NON_SPEC    ACCESS:     139621  HIT:       5933  MISS:     133688  HIT %:    4.24936  MISS %:    95.7506   MPKI: 0.66844
L1D PREFETCH  REQUESTED:   80970206  ISSUED:   69245987  USEFUL:    3847781  USELESS:     268718
L1D USEFUL LOAD PREFETCHES:    3847781 PREFETCH ISSUED TO LOWER LEVEL:   13403119  ACCURACY: 28.7081
L1D TIMELY PREFETCHES:    3847781 LATE PREFETCHES: 1070 DROPPED PREFETCHES: 48676
L1D COMMIT LATE PREFETCHES: 0 MISSED OPPORTUNITY: 0 LATE IN PQ: 0 UNCOVERED: 0
L1D COMMIT LATE MSHR PREFETCHES: 0
L1D MPKI TOTAL: 0.85416 MSHR LATE: 0.00535 PQ LATE: 0 COMMIT LATE: 0 MISSED OPPORTUNITY: 0 UNCOVERED: 0
L1D PREFETCHES SAME FILL-ORIGIN LEVEL: 4117514 DIFFERENT FILL-ORIGIN LEVEL: 9285605
L1D AVERAGE MISS LATENCY: 44.3642 cycles
L1D AVERAGE MISS LATENCY LOAD: 22.0883 cycles
L1D AVERAGE MISS LATENCY PREFETCH: 46.7033 cycles
L1D AVERAGE MSHR OCCUPANCY: 0.661184
L1D MSHR FULL: 3.54515e-05
L1D RQ	ACCESS:   38072084	FORWARD:          0	MERGED:     133737	TO_CACHE:   37938346
L1D WQ	ACCESS:    3106716	FORWARD:          1	MERGED:        520	TO_CACHE:    3106196
L1D PQ	ACCESS:   69245987	FORWARD:          0	MERGED:   40142013	TO_CACHE:   29103974

L1D UNIQUE REGIONS ACCESSED: 0
L1D REGIONS CONFLICTS: 0
L1D Cross Page Prefetch Requests: 38946503
L1D Same Page Prefetch Requests: 49562035
L1D ROI Sum of L1D PQ occupancy: 464417705
L1D PREFETCHES PUSHED FROM L2C: 0
L1I SPEC fills:          0  NON-SPEC fills:          0
L1I Test counter :          0
L1I Leapfrog:          0
L1I MSHR merge:          8
L1I TOTAL     ACCESS:   37103349  HIT:   37103257  MISS:         92  HIT %:    99.9998  MISS %: 0.000247956   MPKI: 0.00046
L1I LOAD      TOTAL       ACCESS:   37103349  HIT:   37103257  MISS:         92  HIT %:    99.9998  MISS %: 0.000247956   MPKI: 0.00046
L1I LOAD      NON_SPEC    ACCESS:   37103349  HIT:   37103257  MISS:         92  HIT %:    99.9998  MISS %: 0.000247956   MPKI: 0.00046
L1I PREFETCH  REQUESTED:          0  ISSUED:          0  USEFUL:          0  USELESS:          0
L1I USEFUL LOAD PREFETCHES:          0 PREFETCH ISSUED TO LOWER LEVEL:          0  ACCURACY: -nan
L1I TIMELY PREFETCHES:          0 LATE PREFETCHES: 0 DROPPED PREFETCHES: 0
L1I COMMIT LATE PREFETCHES: 0 MISSED OPPORTUNITY: 0 LATE IN PQ: 0 UNCOVERED: 0
L1I COMMIT LATE MSHR PREFETCHES: 0
L1I MPKI TOTAL: 0.0005 MSHR LATE: 0 PQ LATE: 0 COMMIT LATE: 0 MISSED OPPORTUNITY: 0 UNCOVERED: 0
L1I PREFETCHES SAME FILL-ORIGIN LEVEL: 0 DIFFERENT FILL-ORIGIN LEVEL: 0
L1I AVERAGE MISS LATENCY: 181.076 cycles
L1I AVERAGE MISS LATENCY LOAD: 181.076 cycles
L1I AVERAGE MISS LATENCY PREFETCH: -nan cycles
L1I AVERAGE MSHR OCCUPANCY: 9.43311e-07
L1I MSHR FULL: 0
L1I RQ	ACCESS:   73298354	FORWARD:          0	MERGED:   36194996	TO_CACHE:   37103358

BTB SPEC fills:          0  NON-SPEC fills:          0
BTB Test counter :          0
BTB Leapfrog:          0
BTB MSHR merge:          0
BTB TOTAL     ACCESS:   32869649  HIT:   32861232  MISS:       8417  HIT %:    99.9744  MISS %:  0.0256072   MPKI: 0.042085
BTB BRANCH_DIRECT_JUMP	ACCESS:      10018  HIT:       9991  MISS:         27
BTB BRANCH_INDIRECT	ACCESS:          0  HIT:          0  MISS:          0
BTB BRANCH_CONDITIONAL	ACCESS:   30064978  HIT:   30064867  MISS:        111
BTB BRANCH_DIRECT_CALL	ACCESS:     706558  HIT:     706534  MISS:         24
BTB BRANCH_INDIRECT_CALL	ACCESS:     690769  HIT:     690752  MISS:         17
BTB BRANCH_RETURN	ACCESS:    1397326  HIT:    1389088  MISS:       8238
BTB BRANCH_OTHER ACCESS:          0  HIT:          0  MISS:          0

L2C SPEC fills:          0  NON-SPEC fills:       6360
L2C Test counter :      57224
L2C Leapfrog:          0
L2C MSHR merge:        450
L2C TOTAL     ACCESS:   13450420  HIT:    9956047  MISS:    3494373  HIT %:    74.0203  MISS %:    25.9797   MPKI: 17.4719
L2C LOAD      TOTAL       ACCESS:     168794  HIT:     148935  MISS:      19859  HIT %:    88.2348  MISS %:    11.7652   MPKI: 0.099295
L2C LOAD      NON_SPEC    ACCESS:      35480  HIT:      29028  MISS:       6452  HIT %:    81.8151  MISS %:    18.1849   MPKI: 0.03226
L2C LOAD      SPEC        ACCESS:     133314  HIT:     119907  MISS:      13407  HIT %:    89.9433  MISS %:    10.0567   MPKI: 0.067035
L2C RFO       NON_SPEC    ACCESS:       3757  HIT:       2247  MISS:       1510  HIT %:    59.8084  MISS %:    40.1916   MPKI: 0.00755
L2C PREFETCH  NON_SPEC    ACCESS:   12987053  HIT:    9529321  MISS:    3457732  HIT %:    73.3755  MISS %:    26.6245   MPKI: 17.2887
L2C WRITEBACK NON_SPEC    ACCESS:       7499  HIT:       7498  MISS:          1  HIT %:    99.9867  MISS %:  0.0133351   MPKI: 5e-06
L2C CLEAN_EVICTION NON_SPEC    ACCESS:     134876  HIT:     121202  MISS:      13674  HIT %:    89.8618  MISS %:    10.1382   MPKI: 0.06837
L2C COMMIT LOAD NON_SPEC    ACCESS:        556  HIT:        432  MISS:        124  HIT %:    77.6978  MISS %:    22.3022   MPKI: 0.00062
L2C LOAD TRANSLATION NON_SPEC    ACCESS:       3725  HIT:       3368  MISS:        357  HIT %:    90.4161  MISS %:    9.58389   MPKI: 0.001785
L2C TRANSLATION FROM L1D PREFETCHER NON_SPEC    ACCESS:     144160  HIT:     143044  MISS:       1116  HIT %:    99.2259  MISS %:    0.77414   MPKI: 0.00558
L2C PREFETCH  REQUESTED:          0  ISSUED:          0  USEFUL:      62383  USELESS:    3401428
L2C USEFUL LOAD PREFETCHES:      62383 PREFETCH ISSUED TO LOWER LEVEL:    3458182  ACCURACY: 1.80392
L2C TIMELY PREFETCHES:      62383 LATE PREFETCHES: 450 DROPPED PREFETCHES: 0
L2C COMMIT LATE PREFETCHES: 0 MISSED OPPORTUNITY: 0 LATE IN PQ: 0 UNCOVERED: 0
L2C COMMIT LATE MSHR PREFETCHES: 0
L2C MPKI TOTAL: 0.099295 MSHR LATE: 0.00225 PQ LATE: 0 COMMIT LATE: 0 MISSED OPPORTUNITY: 0 UNCOVERED: 0
L2C PREFETCHES SAME FILL-ORIGIN LEVEL: 2470276 DIFFERENT FILL-ORIGIN LEVEL: 0
L2C AVERAGE MISS LATENCY: 126.438 cycles
L2C AVERAGE MISS LATENCY LOAD: 88.0124 cycles
L2C AVERAGE MISS LATENCY PREFETCH: 127.119 cycles
L2C AVERAGE MSHR OCCUPANCY: 1.27579
L2C MSHR FULL: 6.54187e-05
L2C RQ	ACCESS:     321982	FORWARD:          0	MERGED:          0	TO_CACHE:     320992
L2C WQ	ACCESS:     142375	FORWARD:       1006	MERGED:          0	TO_CACHE:     142375
L2C PQ	ACCESS:   13403089	FORWARD:          0	MERGED:       2327	TO_CACHE:   13400746

L2C Instructions Evicting Data 92
L2C Translations Evicting Data 1473
L2C Data Evicting Data 3464336
L2C Instructions Evicting Instructions 0
L2C Translations Evicting Instructions 0
L2C Data Evicting Instructions 52
L2C Instructions Evicting Translations 0
L2C Translations Evicting Translations 0
L2C Data Evicting Translations 1338
L2C Dense regions hint from L2: 0
PSCL5 SPEC fills:          0  NON-SPEC fills:          0
PSCL5 Test counter :          0
PSCL5 Leapfrog:          0
PSCL5 MSHR merge:          0
PSCL5 TOTAL     ACCESS:          0  HIT:          0  MISS:          0  HIT %:       -nan  MISS %:       -nan   MPKI: 0
PSCL5 PREFETCH  REQUESTED:          0  ISSUED:          0  USEFUL:          0  USELESS:          0
PSCL5 USEFUL LOAD PREFETCHES:          0 PREFETCH ISSUED TO LOWER LEVEL:          0  ACCURACY: -nan
PSCL5 TIMELY PREFETCHES:          0 LATE PREFETCHES: 0 DROPPED PREFETCHES: 0
PSCL5 COMMIT LATE PREFETCHES: 0 MISSED OPPORTUNITY: 0 LATE IN PQ: 0 UNCOVERED: 0
PSCL5 COMMIT LATE MSHR PREFETCHES: 0
PSCL5 MPKI TOTAL: 0 MSHR LATE: 0 PQ LATE: 0 COMMIT LATE: 0 MISSED OPPORTUNITY: 0 UNCOVERED: 0
PSCL5 PREFETCHES SAME FILL-ORIGIN LEVEL: 0 DIFFERENT FILL-ORIGIN LEVEL: 0

PSCL4 SPEC fills:          0  NON-SPEC fills:          0
PSCL4 Test counter :          0
PSCL4 Leapfrog:          0
PSCL4 MSHR merge:          0
PSCL4 TOTAL     ACCESS:          0  HIT:          0  MISS:          0  HIT %:       -nan  MISS %:       -nan   MPKI: 0
PSCL4 PREFETCH  REQUESTED:          0  ISSUED:          0  USEFUL:          0  USELESS:          0
PSCL4 USEFUL LOAD PREFETCHES:          0 PREFETCH ISSUED TO LOWER LEVEL:          0  ACCURACY: -nan
PSCL4 TIMELY PREFETCHES:          0 LATE PREFETCHES: 0 DROPPED PREFETCHES: 0
PSCL4 COMMIT LATE PREFETCHES: 0 MISSED OPPORTUNITY: 0 LATE IN PQ: 0 UNCOVERED: 0
PSCL4 COMMIT LATE MSHR PREFETCHES: 0
PSCL4 MPKI TOTAL: 0 MSHR LATE: 0 PQ LATE: 0 COMMIT LATE: 0 MISSED OPPORTUNITY: 0 UNCOVERED: 0
PSCL4 PREFETCHES SAME FILL-ORIGIN LEVEL: 0 DIFFERENT FILL-ORIGIN LEVEL: 0

PSCL3 SPEC fills:          0  NON-SPEC fills:          0
PSCL3 Test counter :          0
PSCL3 Leapfrog:          0
PSCL3 MSHR merge:          0
PSCL3 TOTAL     ACCESS:          0  HIT:          0  MISS:          0  HIT %:       -nan  MISS %:       -nan   MPKI: 0
PSCL3 PREFETCH  REQUESTED:          0  ISSUED:          0  USEFUL:          0  USELESS:          0
PSCL3 USEFUL LOAD PREFETCHES:          0 PREFETCH ISSUED TO LOWER LEVEL:          0  ACCURACY: -nan
PSCL3 TIMELY PREFETCHES:          0 LATE PREFETCHES: 0 DROPPED PREFETCHES: 0
PSCL3 COMMIT LATE PREFETCHES: 0 MISSED OPPORTUNITY: 0 LATE IN PQ: 0 UNCOVERED: 0
PSCL3 COMMIT LATE MSHR PREFETCHES: 0
PSCL3 MPKI TOTAL: 0 MSHR LATE: 0 PQ LATE: 0 COMMIT LATE: 0 MISSED OPPORTUNITY: 0 UNCOVERED: 0
PSCL3 PREFETCHES SAME FILL-ORIGIN LEVEL: 0 DIFFERENT FILL-ORIGIN LEVEL: 0

PSCL2 SPEC fills:          0  NON-SPEC fills:          0
PSCL2 Test counter :          0
PSCL2 Leapfrog:          0
PSCL2 MSHR merge:          0
PSCL2 TOTAL     ACCESS:          0  HIT:          0  MISS:          0  HIT %:       -nan  MISS %:       -nan   MPKI: 0
PSCL2 PREFETCH  REQUESTED:          0  ISSUED:          0  USEFUL:          0  USELESS:          0
PSCL2 USEFUL LOAD PREFETCHES:          0 PREFETCH ISSUED TO LOWER LEVEL:          0  ACCURACY: -nan
PSCL2 TIMELY PREFETCHES:          0 LATE PREFETCHES: 0 DROPPED PREFETCHES: 0
PSCL2 COMMIT LATE PREFETCHES: 0 MISSED OPPORTUNITY: 0 LATE IN PQ: 0 UNCOVERED: 0
PSCL2 COMMIT LATE MSHR PREFETCHES: 0
PSCL2 MPKI TOTAL: 0 MSHR LATE: 0 PQ LATE: 0 COMMIT LATE: 0 MISSED OPPORTUNITY: 0 UNCOVERED: 0
PSCL2 PREFETCHES SAME FILL-ORIGIN LEVEL: 0 DIFFERENT FILL-ORIGIN LEVEL: 0

LLC SPEC fills:          0  NON-SPEC fills:       5071
LLC Test counter :      43349
LLC Leapfrog:          0
LLC MSHR merge:          0
LLC TOTAL     ACCESS:    3539116  HIT:     167586  MISS:    3371530  HIT %:    4.73525  MISS %:    95.2647   MPKI: 16.8576
LLC LOAD      TOTAL       ACCESS:      19409  HIT:       7551  MISS:      11858  HIT %:    38.9046  MISS %:    61.0954   MPKI: 0.05929
LLC LOAD      NON_SPEC    ACCESS:       6358  HIT:       1195  MISS:       5163  HIT %:    18.7952  MISS %:    81.2048   MPKI: 0.025815
LLC LOAD      SPEC        ACCESS:      13051  HIT:       6356  MISS:       6695  HIT %:    48.7012  MISS %:    51.2988   MPKI: 0.033475
LLC RFO       NON_SPEC    ACCESS:       1510  HIT:          0  MISS:       1510  HIT %:          0  MISS %:        100   MPKI: 0.00755
LLC PREFETCH  NON_SPEC    ACCESS:    3458182  HIT:     112157  MISS:    3346025  HIT %:    3.24324  MISS %:    96.7568   MPKI: 16.7301
LLC WRITEBACK NON_SPEC    ACCESS:       1194  HIT:       1193  MISS:          1  HIT %:    99.9162  MISS %:  0.0837521   MPKI: 5e-06
LLC CLEAN_EVICTION NON_SPEC    ACCESS:      57224  HIT:      46660  MISS:      10564  HIT %:    81.5392  MISS %:    18.4608   MPKI: 0.05282
LLC COMMIT LOAD NON_SPEC    ACCESS:        124  HIT:         17  MISS:        107  HIT %:    13.7097  MISS %:    86.2903   MPKI: 0.000535
LLC LOAD TRANSLATION NON_SPEC    ACCESS:        357  HIT:          2  MISS:        355  HIT %:   0.560224  MISS %:    99.4398   MPKI: 0.001775
LLC TRANSLATION FROM L1D PREFETCHER NON_SPEC    ACCESS:       1116  HIT:          6  MISS:       1110  HIT %:   0.537634  MISS %:    99.4624   MPKI: 0.00555
LLC PREFETCH  REQUESTED:          0  ISSUED:          0  USEFUL:        687  USELESS:    3350119
LLC USEFUL LOAD PREFETCHES:        687 PREFETCH ISSUED TO LOWER LEVEL:    3346025  ACCURACY: 0.0205318
LLC TIMELY PREFETCHES:        687 LATE PREFETCHES: 0 DROPPED PREFETCHES: 0
LLC COMMIT LATE PREFETCHES: 0 MISSED OPPORTUNITY: 0 LATE IN PQ: 0 UNCOVERED: 0
LLC COMMIT LATE MSHR PREFETCHES: 0
LLC MPKI TOTAL: 0.05929 MSHR LATE: 0 PQ LATE: 0 COMMIT LATE: 0 MISSED OPPORTUNITY: 0 UNCOVERED: 0
LLC PREFETCHES SAME FILL-ORIGIN LEVEL: 0 DIFFERENT FILL-ORIGIN LEVEL: 0
LLC AVERAGE MISS LATENCY: 100.121 cycles
LLC AVERAGE MISS LATENCY LOAD: 104.318 cycles
LLC AVERAGE MISS LATENCY PREFETCH: 100.385 cycles
LLC AVERAGE MSHR OCCUPANCY: 1.52385
LLC MSHR FULL: 0
LLC RQ	ACCESS:      22516	FORWARD:          0	MERGED:          0	TO_CACHE:      22516
LLC WQ	ACCESS:      58418	FORWARD:          0	MERGED:          0	TO_CACHE:      58418
LLC PQ	ACCESS:    3458182	FORWARD:          0	MERGED:          0	TO_CACHE:    3458182

LLC Dense regions hint to LLC: 0

RAW hits: 11181
Loads Generated: 58965269
Loads sent to L1D: 58954086
Stores Generated: 2967094
Stores sent to L1D: 2967095
Major fault: 0 Minor fault: 1462
Allocated PAGES: 1462
Total Load insts: 73705017
Total Non-spec loads: 6155293
Percentage of speculative loads: 91.6487

LeapFrogging counter: 2
Commit hits: 31957325 miss: 21036604
Commit hit %: 60.3037 miss %: 39.6963
Commits not translated: 0
Loads retired: 170762
Stores retired: 2967095
Cache fills: 170762
L1D response latency: 22.0883 cycles
Load retirement latency: 57.4092 cycles
OOO test counter: 0
Discarded buffer inserts: 31957325 hits: 7641 hit %: 0.02391
Filter prediction accuracy: 99.9881
ALL MISSES SIZE: 1055
LATENCY_FILL: 22.0123 170782
LATENCY_FILL_ROB: 48.9932 170726
test counter pref: 1305080
Max ROB Extended: 17

DRAM Statistics
 CHANNEL 0
 RQ ROW_BUFFER_HIT:    2897152  ROW_BUFFER_MISS:     463808
 DBUS_CONGESTED:        294
 WQ ROW_BUFFER_HIT:       6857  ROW_BUFFER_MISS:      37677  FULL:          0

 AVG_CONGESTED_CYCLE: 4
 All warmup complete: 2
Channel 0 Bank busy for read cycles: 0
Channel 0 Bank busy for write cycles: 0
Channel 0
Rank 0
0banks busy for read cycles: 130982428
0banks busy for write cycles: 35166
1banks busy for read cycles: 33618686
1banks busy for write cycles: 5794011
2banks busy for read cycles: 20275476
2banks busy for write cycles: 832243
3banks busy for read cycles: 16107779
3banks busy for write cycles: 213208
4banks busy for read cycles: 11533801
4banks busy for write cycles: 75414
5banks busy for read cycles: 5909771
5banks busy for write cycles: 29154
6banks busy for read cycles: 1965949
6banks busy for write cycles: 13213
7banks busy for read cycles: 483163
7banks busy for write cycles: 5605
8banks busy for read cycles: 134714
8banks busy for write cycles: 2728

CPU 0 Branch Prediction Accuracy: 99.9889% MPKI: 0.030745 Average ROB Occupancy at Mispredict: 46.2882
Branch types
NOT_BRANCH: 144470819 72.2354%
BRANCH_DIRECT_JUMP: 10018 0.005009%
BRANCH_INDIRECT: 0 0%
BRANCH_CONDITIONAL: 52724204 26.3621%
BRANCH_DIRECT_CALL: 706558 0.353279%
BRANCH_INDIRECT_CALL: 690769 0.345384%
BRANCH_RETURN: 1397326 0.698663%
BRANCH_OTHER: 0 0%

DRAM PAGES: 1048576
Allocated PAGES: 1462
