
*** ChampSim Multicore Out-of-Order Simulator ***

Warmup Instructions: 50000000
Simulation Instructions: 200000000
Number of CPUs: 1
LLC sets: 2048
LLC ways: 16
L0D sets: 16
L0D ways: 2
ROB size: 352
LQ size: 128
SQ size: 72
Secure Berti: ON
Berti: ON
Berti Fill: ON
On commit prefetching: OFF
Hit-based filter: ON
Time-guarding: ON
Free-slotting: ON
Leap-frogging: ON
Train prefetcher on L0D bypass: OFF
No translation penalty for prefetchers: OFF
Prefetch to L0D only: OFF
Prefetch to L1D only: OFF
Clean evictions: ON
Commit loads: ON
Commit write: ON
Fill commit loads to L2C, LLC: ON
DRAM IO FREQUENCY: 6400
ROB SIZE: 352
Off-chip DRAM Size: 4096 MB Channels: 1 Width: 64-bit Data Rate: 6400 MT/s
CPU 0 runs /home/sumon/secure_berti/GhostMinion/../../traces/spec/649.fotonik3d_s-7084B.champsimtrace.xz
.xz
BTB has LRU replacement policy
ITLB has LRU replacement policy
DTLB has LRU replacement policy
STLB has LRU replacement policy
L1I has LRU replacement policy
L0D has LRU replacement policy
Berti version on_commit
History Sets: 8
History Ways: 16
BERTI Size: 16
BERTI Stride Size: 16
L1D has LRU replacement policy
L2C has LRU replacement policy
LLC has LRU replacement policy
Heartbeat CPU 0 instructions: 10000001 cycles: 3118038 heartbeat IPC: 3.20715 cumulative IPC: 3.20715 (Simulation time: 0 hr 0 min 38 sec) 
Heartbeat CPU 0 instructions: 20000001 cycles: 6236736 heartbeat IPC: 3.20647 cumulative IPC: 3.20681 (Simulation time: 0 hr 1 min 17 sec) 
Heartbeat CPU 0 instructions: 30000001 cycles: 9356068 heartbeat IPC: 3.20581 cumulative IPC: 3.20648 (Simulation time: 0 hr 1 min 55 sec) 
Heartbeat CPU 0 instructions: 40000003 cycles: 12474222 heartbeat IPC: 3.20703 cumulative IPC: 3.20661 (Simulation time: 0 hr 2 min 33 sec) 
Heartbeat CPU 0 instructions: 50000002 cycles: 15594374 heartbeat IPC: 3.20497 cumulative IPC: 3.20628 (Simulation time: 0 hr 3 min 12 sec) 

Warmup complete CPU 0 instructions: 50000002 cycles: 15594374 (Simulation time: 0 hr 3 min 12 sec) 

Heartbeat CPU 0 instructions: 60000001 cycles: 25706732 heartbeat IPC: 0.988889 cumulative IPC: 0.988889 (Simulation time: 0 hr 3 min 59 sec) 
Heartbeat CPU 0 instructions: 70000002 cycles: 35808642 heartbeat IPC: 0.989912 cumulative IPC: 0.9894 (Simulation time: 0 hr 4 min 47 sec) 
Heartbeat CPU 0 instructions: 80000003 cycles: 45911612 heartbeat IPC: 0.989808 cumulative IPC: 0.989536 (Simulation time: 0 hr 5 min 34 sec) 
Heartbeat CPU 0 instructions: 90000001 cycles: 56009324 heartbeat IPC: 0.990323 cumulative IPC: 0.989733 (Simulation time: 0 hr 6 min 22 sec) 
Heartbeat CPU 0 instructions: 100000001 cycles: 66107204 heartbeat IPC: 0.990307 cumulative IPC: 0.989847 (Simulation time: 0 hr 7 min 11 sec) 
Heartbeat CPU 0 instructions: 110000000 cycles: 76212678 heartbeat IPC: 0.989563 cumulative IPC: 0.9898 (Simulation time: 0 hr 8 min 1 sec) 
Heartbeat CPU 0 instructions: 120000000 cycles: 86309066 heartbeat IPC: 0.990453 cumulative IPC: 0.989893 (Simulation time: 0 hr 8 min 51 sec) 
Heartbeat CPU 0 instructions: 130000002 cycles: 96406094 heartbeat IPC: 0.990391 cumulative IPC: 0.989955 (Simulation time: 0 hr 9 min 39 sec) 
Heartbeat CPU 0 instructions: 140000002 cycles: 106511641 heartbeat IPC: 0.989556 cumulative IPC: 0.989911 (Simulation time: 0 hr 10 min 28 sec) 
Heartbeat CPU 0 instructions: 150000001 cycles: 116606389 heartbeat IPC: 0.990614 cumulative IPC: 0.989981 (Simulation time: 0 hr 11 min 16 sec) 
Heartbeat CPU 0 instructions: 160000001 cycles: 126703857 heartbeat IPC: 0.990347 cumulative IPC: 0.990014 (Simulation time: 0 hr 12 min 6 sec) 
Heartbeat CPU 0 instructions: 170000000 cycles: 136806834 heartbeat IPC: 0.989807 cumulative IPC: 0.989997 (Simulation time: 0 hr 12 min 54 sec) 
Heartbeat CPU 0 instructions: 180000001 cycles: 146902194 heartbeat IPC: 0.990554 cumulative IPC: 0.99004 (Simulation time: 0 hr 13 min 42 sec) 
Heartbeat CPU 0 instructions: 190000001 cycles: 157002001 heartbeat IPC: 0.990118 cumulative IPC: 0.990046 (Simulation time: 0 hr 14 min 31 sec) 
Heartbeat CPU 0 instructions: 200000001 cycles: 167106791 heartbeat IPC: 0.98963 cumulative IPC: 0.990018 (Simulation time: 0 hr 15 min 18 sec) 
Heartbeat CPU 0 instructions: 210000003 cycles: 177205920 heartbeat IPC: 0.990185 cumulative IPC: 0.990028 (Simulation time: 0 hr 16 min 4 sec) 
Heartbeat CPU 0 instructions: 220000000 cycles: 187302713 heartbeat IPC: 0.990413 cumulative IPC: 0.990051 (Simulation time: 0 hr 17 min 30 sec) 
Heartbeat CPU 0 instructions: 230000001 cycles: 197401745 heartbeat IPC: 0.990194 cumulative IPC: 0.990059 (Simulation time: 0 hr 18 min 58 sec) 
Heartbeat CPU 0 instructions: 240000002 cycles: 207501951 heartbeat IPC: 0.990079 cumulative IPC: 0.99006 (Simulation time: 0 hr 20 min 25 sec) 
Heartbeat CPU 0 instructions: 250000002 cycles: 217595148 heartbeat IPC: 0.990766 cumulative IPC: 0.990095 (Simulation time: 0 hr 22 min 4 sec) 
Finished CPU 0 instructions: 200000000 cycles: 202000774 cumulative IPC: 0.990095 (Simulation time: 0 hr 22 min 4 sec) 
 Instruction ID: 250000204

ChampSim completed all CPUs

Region of Interest Statistics

CPU 0 cumulative IPC: 0.990095 instructions: 200000000 cycles: 202000774
ITLB SPEC fills:          0  NON-SPEC fills:          0
ITLB Test counter :          0
ITLB Leapfrog:          0
ITLB MSHR merge:          0
ITLB TOTAL     ACCESS:   24339912  HIT:   24339912  MISS:          0  HIT %:        100  MISS %:          0   MPKI: 0
ITLB LOAD TRANSLATION NON_SPEC    ACCESS:   24339912  HIT:   24339912  MISS:          0  HIT %:        100  MISS %:          0   MPKI: 0
ITLB PREFETCH  REQUESTED:          0  ISSUED:          0  USEFUL:          0  USELESS:          0
ITLB USEFUL LOAD PREFETCHES:          0 PREFETCH ISSUED TO LOWER LEVEL:          0  ACCURACY: -nan
ITLB TIMELY PREFETCHES:          0 LATE PREFETCHES: 0 DROPPED PREFETCHES: 0
ITLB COMMIT LATE PREFETCHES: 0 MISSED OPPORTUNITY: 0 LATE IN PQ: 0 UNCOVERED: 0
ITLB COMMIT LATE MSHR PREFETCHES: 0
ITLB MPKI TOTAL: 0 MSHR LATE: 0 PQ LATE: 0 COMMIT LATE: 0 MISSED OPPORTUNITY: 0 UNCOVERED: 0
ITLB PREFETCHES SAME FILL-ORIGIN LEVEL: 0 DIFFERENT FILL-ORIGIN LEVEL: 0
ITLB AVERAGE MISS LATENCY: -nan cycles
ITLB AVERAGE MISS LATENCY LOAD: -nan cycles
ITLB AVERAGE MISS LATENCY PREFETCH: -nan cycles
ITLB AVERAGE MSHR OCCUPANCY: 0
ITLB MSHR FULL: 0
ITLB RQ	ACCESS:   29752848	FORWARD:          0	MERGED:    5412936	TO_CACHE:   24339912

DTLB SPEC fills:          0  NON-SPEC fills:          0
DTLB Test counter :          0
DTLB Leapfrog:          0
DTLB MSHR merge:          0
DTLB TOTAL     ACCESS:   63912506  HIT:   63788220  MISS:     124286  HIT %:    99.8055  MISS %:   0.194463   MPKI: 0.62143
DTLB LOAD TRANSLATION NON_SPEC    ACCESS:   63912506  HIT:   63788220  MISS:     124286  HIT %:    99.8055  MISS %:   0.194463   MPKI: 0.62143
DTLB PREFETCH  REQUESTED:          0  ISSUED:          0  USEFUL:          0  USELESS:          0
DTLB USEFUL LOAD PREFETCHES:          0 PREFETCH ISSUED TO LOWER LEVEL:          0  ACCURACY: -nan
DTLB TIMELY PREFETCHES:          0 LATE PREFETCHES: 0 DROPPED PREFETCHES: 0
DTLB COMMIT LATE PREFETCHES: 0 MISSED OPPORTUNITY: 0 LATE IN PQ: 0 UNCOVERED: 0
DTLB COMMIT LATE MSHR PREFETCHES: 0
DTLB MPKI TOTAL: 0 MSHR LATE: 0 PQ LATE: 0 COMMIT LATE: 0 MISSED OPPORTUNITY: 0 UNCOVERED: 0
DTLB PREFETCHES SAME FILL-ORIGIN LEVEL: 0 DIFFERENT FILL-ORIGIN LEVEL: 0
DTLB AVERAGE MISS LATENCY: 75.7115 cycles
DTLB AVERAGE MISS LATENCY LOAD: -nan cycles
DTLB AVERAGE MISS LATENCY PREFETCH: -nan cycles
DTLB AVERAGE MSHR OCCUPANCY: 0.0174268
DTLB MSHR FULL: 0.000100139
DTLB RQ	ACCESS:   71753395	FORWARD:          0	MERGED:    7838696	TO_CACHE:   63914699

STLB SPEC fills:          0  NON-SPEC fills:          0
STLB Test counter :          0
STLB Leapfrog:          0
STLB MSHR merge:          0
STLB TOTAL     ACCESS:   13394902  HIT:   13340305  MISS:      54597  HIT %:    99.5924  MISS %:   0.407595   MPKI: 0.272985
STLB LOAD TRANSLATION NON_SPEC    ACCESS:     124286  HIT:      81238  MISS:      43048  HIT %:    65.3638  MISS %:    34.6362   MPKI: 0.21524
STLB TRANSLATION FROM L1D PREFETCHER NON_SPEC    ACCESS:   13270616  HIT:   13259067  MISS:      11549  HIT %:     99.913  MISS %:  0.0870269   MPKI: 0.057745
STLB PREFETCH  REQUESTED:          0  ISSUED:          0  USEFUL:      11549  USELESS:          0
STLB USEFUL LOAD PREFETCHES:      11549 PREFETCH ISSUED TO LOWER LEVEL:          0  ACCURACY: inf
STLB TIMELY PREFETCHES:      11549 LATE PREFETCHES: 1973 DROPPED PREFETCHES: 775521
STLB COMMIT LATE PREFETCHES: 0 MISSED OPPORTUNITY: 0 LATE IN PQ: 0 UNCOVERED: 0
STLB COMMIT LATE MSHR PREFETCHES: 0
STLB MPKI TOTAL: 0 MSHR LATE: 0.009865 PQ LATE: 0 COMMIT LATE: 0 MISSED OPPORTUNITY: 0 UNCOVERED: 0
STLB PREFETCHES SAME FILL-ORIGIN LEVEL: 0 DIFFERENT FILL-ORIGIN LEVEL: 0
STLB AVERAGE MISS LATENCY: 172.108 cycles
STLB AVERAGE MISS LATENCY LOAD: -nan cycles
STLB AVERAGE MISS LATENCY PREFETCH: -nan cycles
STLB AVERAGE MSHR OCCUPANCY: 0.166636
STLB MSHR FULL: 0
STLB RQ	ACCESS:   69523027	FORWARD:          0	MERGED:   55349160	TO_CACHE:   14173867

STLB Hit, L1D data hit: 0
STLB Hit, L2C data hit: 0
STLB Hit, LLC data hit: 0
STLB Hit, LLC data miss: 0
STLB STLB hints to L2: 0
L0D SPEC fills:   40079290  NON-SPEC fills:          0
L0D TimeGuard Request with older TS:     279981 Restricted eviction:     361609 read:     193352
L0D Test counter :          0
L0D Leapfrog:          0
L0D MSHR merge:     680090
L0D TOTAL     ACCESS:   61238866  HIT:   14237570  MISS:   47001296  HIT %:    23.2492  MISS %:    76.7508   MPKI: 235.006
L0D LOAD      TOTAL       ACCESS:   61238866  HIT:   14237570  MISS:   47001296  HIT %:    23.2492  MISS %:    76.7508   MPKI: 235.006
L0D LOAD      NON_SPEC    ACCESS:    7238443  HIT:     677973  MISS:    6560470  HIT %:    9.36628  MISS %:    90.6337   MPKI: 32.8023
L0D LOAD      SPEC        ACCESS:   54000423  HIT:   13559597  MISS:   40440826  HIT %:    25.1102  MISS %:    74.8898   MPKI: 202.204
L0D PREFETCH  REQUESTED:          0  ISSUED:          0  USEFUL:          0  USELESS:          0
L0D USEFUL LOAD PREFETCHES:          0 PREFETCH ISSUED TO LOWER LEVEL:          0  ACCURACY: -nan
L0D TIMELY PREFETCHES:          0 LATE PREFETCHES: 0 DROPPED PREFETCHES: 0
L0D COMMIT LATE PREFETCHES: 0 MISSED OPPORTUNITY: 0 LATE IN PQ: 0 UNCOVERED: 0
L0D COMMIT LATE MSHR PREFETCHES: 0
L0D MPKI TOTAL: 238.407 MSHR LATE: 0 PQ LATE: 0 COMMIT LATE: 0 MISSED OPPORTUNITY: 0 UNCOVERED: 0
L0D PREFETCHES SAME FILL-ORIGIN LEVEL: 0 DIFFERENT FILL-ORIGIN LEVEL: 0
L0D AVERAGE MISS LATENCY: 5.42231 cycles
L0D AVERAGE MISS LATENCY LOAD: 5.42231 cycles
L0D AVERAGE MISS LATENCY PREFETCH: -nan cycles
L0D AVERAGE MSHR OCCUPANCY: 1.07504
L0D MSHR FULL: 4.57031e-05
L0D RQ	ACCESS:   70419851	FORWARD:          0	MERGED:    8500898	TO_CACHE:   61918953
L0D WQ	ACCESS:    9834442	FORWARD:          0	MERGED:          0	TO_CACHE:    9834442

L1D SPEC fills:          0  NON-SPEC fills:      19526
L1D Test counter :     107624
L1D Leapfrog:          0
L1D MSHR merge:      14386
L1D TOTAL     ACCESS:  114126917  HIT:  110527683  MISS:    3599234  HIT %:    96.8463  MISS %:    3.15371   MPKI: 17.9962
L1D LOAD      TOTAL       ACCESS:   47001070  HIT:   46872987  MISS:     128083  HIT %:    99.7275  MISS %:   0.272511   MPKI: 0.640415
L1D LOAD      NON_SPEC    ACCESS:    6560463  HIT:    6540937  MISS:      19526  HIT %:    99.7024  MISS %:   0.297631   MPKI: 0.09763
L1D LOAD      SPEC        ACCESS:   40440607  HIT:   40332050  MISS:     108557  HIT %:    99.7316  MISS %:   0.268436   MPKI: 0.542785
L1D RFO       NON_SPEC    ACCESS:    9834287  HIT:    9834285  MISS:          2  HIT %:        100  MISS %: 2.0337e-05   MPKI: 1e-05
L1D PREFETCH  NON_SPEC    ACCESS:   57148213  HIT:   53785237  MISS:    3362976  HIT %:    94.1153  MISS %:    5.88466   MPKI: 16.8149
L1D COMMIT LOAD NON_SPEC    ACCESS:      35012  HIT:      34183  MISS:        829  HIT %:    97.6322  MISS %:    2.36776   MPKI: 0.004145
L1D COMMIT WRITE NON_SPEC    ACCESS:     108335  HIT:        991  MISS:     107344  HIT %:   0.914755  MISS %:    99.0852   MPKI: 0.53672
L1D PREFETCH  REQUESTED:  107043482  ISSUED:   69438950  USEFUL:    3163006  USELESS:     199985
L1D USEFUL LOAD PREFETCHES:    3163006 PREFETCH ISSUED TO LOWER LEVEL:   11673409  ACCURACY: 27.0958
L1D TIMELY PREFETCHES:    3163006 LATE PREFETCHES: 14165 DROPPED PREFETCHES: 2662955
L1D COMMIT LATE PREFETCHES: 0 MISSED OPPORTUNITY: 0 LATE IN PQ: 0 UNCOVERED: 0
L1D COMMIT LATE MSHR PREFETCHES: 0
L1D MPKI TOTAL: 0.641545 MSHR LATE: 0.070825 PQ LATE: 0 COMMIT LATE: 0 MISSED OPPORTUNITY: 0 UNCOVERED: 0
L1D PREFETCHES SAME FILL-ORIGIN LEVEL: 3377148 DIFFERENT FILL-ORIGIN LEVEL: 8296261
L1D AVERAGE MISS LATENCY: 124.286 cycles
L1D AVERAGE MISS LATENCY LOAD: 115.138 cycles
L1D AVERAGE MISS LATENCY PREFETCH: 128.613 cycles
L1D AVERAGE MSHR OCCUPANCY: 2.30532
L1D MSHR FULL: 0.00331468
L1D RQ	ACCESS:   47066212	FORWARD:          0	MERGED:      29080	TO_CACHE:   47036429
L1D WQ	ACCESS:    9942778	FORWARD:        703	MERGED:         42	TO_CACHE:    9942736
L1D PQ	ACCESS:   69438950	FORWARD:          0	MERGED:      40209	TO_CACHE:   69398741

L1D UNIQUE REGIONS ACCESSED: 0
L1D REGIONS CONFLICTS: 0
L1D Cross Page Prefetch Requests: 4675535
L1D Same Page Prefetch Requests: 81852453
L1D ROI Sum of L1D PQ occupancy: 1801217182
L1D PREFETCHES PUSHED FROM L2C: 0
L1I SPEC fills:          0  NON-SPEC fills:          0
L1I Test counter :          0
L1I Leapfrog:          0
L1I MSHR merge:          0
L1I TOTAL     ACCESS:   29752847  HIT:   29752847  MISS:          0  HIT %:        100  MISS %:          0   MPKI: 0
L1I LOAD      TOTAL       ACCESS:   29752847  HIT:   29752847  MISS:          0  HIT %:        100  MISS %:          0   MPKI: 0
L1I LOAD      NON_SPEC    ACCESS:   29752847  HIT:   29752847  MISS:          0  HIT %:        100  MISS %:          0   MPKI: 0
L1I PREFETCH  REQUESTED:          0  ISSUED:          0  USEFUL:          0  USELESS:          0
L1I USEFUL LOAD PREFETCHES:          0 PREFETCH ISSUED TO LOWER LEVEL:          0  ACCURACY: -nan
L1I TIMELY PREFETCHES:          0 LATE PREFETCHES: 0 DROPPED PREFETCHES: 0
L1I COMMIT LATE PREFETCHES: 0 MISSED OPPORTUNITY: 0 LATE IN PQ: 0 UNCOVERED: 0
L1I COMMIT LATE MSHR PREFETCHES: 0
L1I MPKI TOTAL: 0 MSHR LATE: 0 PQ LATE: 0 COMMIT LATE: 0 MISSED OPPORTUNITY: 0 UNCOVERED: 0
L1I PREFETCHES SAME FILL-ORIGIN LEVEL: 0 DIFFERENT FILL-ORIGIN LEVEL: 0
L1I AVERAGE MISS LATENCY: -nan cycles
L1I AVERAGE MISS LATENCY LOAD: -nan cycles
L1I AVERAGE MISS LATENCY PREFETCH: -nan cycles
L1I AVERAGE MSHR OCCUPANCY: 0
L1I MSHR FULL: 0
L1I RQ	ACCESS:   43300517	FORWARD:          0	MERGED:   13547669	TO_CACHE:   29752848

BTB SPEC fills:          0  NON-SPEC fills:          0
BTB Test counter :          0
BTB Leapfrog:          0
BTB MSHR merge:          0
BTB TOTAL     ACCESS:    1347104  HIT:    1347101  MISS:          3  HIT %:    99.9998  MISS %:  0.0002227   MPKI: 1.5e-05
BTB BRANCH_DIRECT_JUMP	ACCESS:          0  HIT:          0  MISS:          0
BTB BRANCH_INDIRECT	ACCESS:          0  HIT:          0  MISS:          0
BTB BRANCH_CONDITIONAL	ACCESS:    1347104  HIT:    1347101  MISS:          3
BTB BRANCH_DIRECT_CALL	ACCESS:          0  HIT:          0  MISS:          0
BTB BRANCH_INDIRECT_CALL	ACCESS:          0  HIT:          0  MISS:          0
BTB BRANCH_RETURN	ACCESS:          0  HIT:          0  MISS:          0
BTB BRANCH_OTHER ACCESS:          0  HIT:          0  MISS:          0

L2C SPEC fills:          0  NON-SPEC fills:      14167
L2C Test counter :      92378
L2C Leapfrog:          0
L2C MSHR merge:       1003
L2C TOTAL     ACCESS:   15894752  HIT:   12356882  MISS:    3537870  HIT %:    77.7419  MISS %:    22.2581   MPKI: 17.6894
L2C LOAD      TOTAL       ACCESS:     113835  HIT:      49217  MISS:      64618  HIT %:    43.2354  MISS %:    56.7646   MPKI: 0.32309
L2C LOAD      NON_SPEC    ACCESS:      18318  HIT:       4151  MISS:      14167  HIT %:    22.6608  MISS %:    77.3392   MPKI: 0.070835
L2C LOAD      SPEC        ACCESS:      95517  HIT:      45066  MISS:      50451  HIT %:    47.1811  MISS %:    52.8189   MPKI: 0.252255
L2C RFO       NON_SPEC    ACCESS:          2  HIT:          1  MISS:          1  HIT %:         50  MISS %:         50   MPKI: 5e-06
L2C PREFETCH  NON_SPEC    ACCESS:   10507415  HIT:    7091875  MISS:    3415540  HIT %:     67.494  MISS %:     32.506   MPKI: 17.0777
L2C WRITEBACK NON_SPEC    ACCESS:    1006179  HIT:    1006178  MISS:          1  HIT %:    99.9999  MISS %: 9.93859e-05   MPKI: 5e-06
L2C CLEAN_EVICTION NON_SPEC    ACCESS:     107624  HIT:      57147  MISS:      50477  HIT %:    53.0988  MISS %:    46.9012   MPKI: 0.252385
L2C COMMIT LOAD NON_SPEC    ACCESS:        824  HIT:        587  MISS:        237  HIT %:    71.2379  MISS %:    28.7621   MPKI: 0.001185
L2C LOAD TRANSLATION NON_SPEC    ACCESS:     215110  HIT:     214890  MISS:        220  HIT %:    99.8977  MISS %:   0.102273   MPKI: 0.0011
L2C TRANSLATION FROM L1D PREFETCHER NON_SPEC    ACCESS:    3943763  HIT:    3936987  MISS:       6776  HIT %:    99.8282  MISS %:   0.171816   MPKI: 0.03388
L2C PREFETCH  REQUESTED:          0  ISSUED:          0  USEFUL:      40184  USELESS:    3382267
L2C USEFUL LOAD PREFETCHES:      40184 PREFETCH ISSUED TO LOWER LEVEL:    3416548  ACCURACY: 1.17616
L2C TIMELY PREFETCHES:      40184 LATE PREFETCHES: 1003 DROPPED PREFETCHES: 0
L2C COMMIT LATE PREFETCHES: 0 MISSED OPPORTUNITY: 0 LATE IN PQ: 0 UNCOVERED: 0
L2C COMMIT LATE MSHR PREFETCHES: 0
L2C MPKI TOTAL: 0.32309 MSHR LATE: 0.005015 PQ LATE: 0 COMMIT LATE: 0 MISSED OPPORTUNITY: 0 UNCOVERED: 0
L2C PREFETCHES SAME FILL-ORIGIN LEVEL: 1668349 DIFFERENT FILL-ORIGIN LEVEL: 0
L2C AVERAGE MISS LATENCY: 211.383 cycles
L2C AVERAGE MISS LATENCY LOAD: 175.523 cycles
L2C AVERAGE MISS LATENCY PREFETCH: 215.122 cycles
L2C AVERAGE MSHR OCCUPANCY: 3.13529
L2C MSHR FULL: 5.87329e-05
L2C RQ	ACCESS:    4273623	FORWARD:          0	MERGED:          0	TO_CACHE:    4273535
L2C WQ	ACCESS:    1113803	FORWARD:         88	MERGED:          0	TO_CACHE:    1113803
L2C PQ	ACCESS:   11670793	FORWARD:          0	MERGED:         12	TO_CACHE:   11670781

L2C Instructions Evicting Data 0
L2C Translations Evicting Data 6993
L2C Data Evicting Data 3423066
L2C Instructions Evicting Instructions 0
L2C Translations Evicting Instructions 0
L2C Data Evicting Instructions 0
L2C Instructions Evicting Translations 0
L2C Translations Evicting Translations 3
L2C Data Evicting Translations 6879
L2C Dense regions hint from L2: 0
PSCL5 SPEC fills:          0  NON-SPEC fills:          0
PSCL5 Test counter :          0
PSCL5 Leapfrog:          0
PSCL5 MSHR merge:          0
PSCL5 TOTAL     ACCESS:          0  HIT:          0  MISS:          0  HIT %:       -nan  MISS %:       -nan   MPKI: 0
PSCL5 PREFETCH  REQUESTED:          0  ISSUED:          0  USEFUL:          0  USELESS:          0
PSCL5 USEFUL LOAD PREFETCHES:          0 PREFETCH ISSUED TO LOWER LEVEL:          0  ACCURACY: -nan
PSCL5 TIMELY PREFETCHES:          0 LATE PREFETCHES: 0 DROPPED PREFETCHES: 0
PSCL5 COMMIT LATE PREFETCHES: 0 MISSED OPPORTUNITY: 0 LATE IN PQ: 0 UNCOVERED: 0
PSCL5 COMMIT LATE MSHR PREFETCHES: 0
PSCL5 MPKI TOTAL: 0 MSHR LATE: 0 PQ LATE: 0 COMMIT LATE: 0 MISSED OPPORTUNITY: 0 UNCOVERED: 0
PSCL5 PREFETCHES SAME FILL-ORIGIN LEVEL: 0 DIFFERENT FILL-ORIGIN LEVEL: 0

PSCL4 SPEC fills:          0  NON-SPEC fills:          0
PSCL4 Test counter :          0
PSCL4 Leapfrog:          0
PSCL4 MSHR merge:          0
PSCL4 TOTAL     ACCESS:          0  HIT:          0  MISS:          0  HIT %:       -nan  MISS %:       -nan   MPKI: 0
PSCL4 PREFETCH  REQUESTED:          0  ISSUED:          0  USEFUL:          0  USELESS:          0
PSCL4 USEFUL LOAD PREFETCHES:          0 PREFETCH ISSUED TO LOWER LEVEL:          0  ACCURACY: -nan
PSCL4 TIMELY PREFETCHES:          0 LATE PREFETCHES: 0 DROPPED PREFETCHES: 0
PSCL4 COMMIT LATE PREFETCHES: 0 MISSED OPPORTUNITY: 0 LATE IN PQ: 0 UNCOVERED: 0
PSCL4 COMMIT LATE MSHR PREFETCHES: 0
PSCL4 MPKI TOTAL: 0 MSHR LATE: 0 PQ LATE: 0 COMMIT LATE: 0 MISSED OPPORTUNITY: 0 UNCOVERED: 0
PSCL4 PREFETCHES SAME FILL-ORIGIN LEVEL: 0 DIFFERENT FILL-ORIGIN LEVEL: 0

PSCL3 SPEC fills:          0  NON-SPEC fills:          0
PSCL3 Test counter :          0
PSCL3 Leapfrog:          0
PSCL3 MSHR merge:          0
PSCL3 TOTAL     ACCESS:          0  HIT:          0  MISS:          0  HIT %:       -nan  MISS %:       -nan   MPKI: 0
PSCL3 PREFETCH  REQUESTED:          0  ISSUED:          0  USEFUL:          0  USELESS:          0
PSCL3 USEFUL LOAD PREFETCHES:          0 PREFETCH ISSUED TO LOWER LEVEL:          0  ACCURACY: -nan
PSCL3 TIMELY PREFETCHES:          0 LATE PREFETCHES: 0 DROPPED PREFETCHES: 0
PSCL3 COMMIT LATE PREFETCHES: 0 MISSED OPPORTUNITY: 0 LATE IN PQ: 0 UNCOVERED: 0
PSCL3 COMMIT LATE MSHR PREFETCHES: 0
PSCL3 MPKI TOTAL: 0 MSHR LATE: 0 PQ LATE: 0 COMMIT LATE: 0 MISSED OPPORTUNITY: 0 UNCOVERED: 0
PSCL3 PREFETCHES SAME FILL-ORIGIN LEVEL: 0 DIFFERENT FILL-ORIGIN LEVEL: 0

PSCL2 SPEC fills:          0  NON-SPEC fills:          0
PSCL2 Test counter :          0
PSCL2 Leapfrog:          0
PSCL2 MSHR merge:          0
PSCL2 TOTAL     ACCESS:          0  HIT:          0  MISS:          0  HIT %:       -nan  MISS %:       -nan   MPKI: 0
PSCL2 PREFETCH  REQUESTED:          0  ISSUED:          0  USEFUL:          0  USELESS:          0
PSCL2 USEFUL LOAD PREFETCHES:          0 PREFETCH ISSUED TO LOWER LEVEL:          0  ACCURACY: -nan
PSCL2 TIMELY PREFETCHES:          0 LATE PREFETCHES: 0 DROPPED PREFETCHES: 0
PSCL2 COMMIT LATE PREFETCHES: 0 MISSED OPPORTUNITY: 0 LATE IN PQ: 0 UNCOVERED: 0
PSCL2 COMMIT LATE MSHR PREFETCHES: 0
PSCL2 MPKI TOTAL: 0 MSHR LATE: 0 PQ LATE: 0 COMMIT LATE: 0 MISSED OPPORTUNITY: 0 UNCOVERED: 0
PSCL2 PREFETCHES SAME FILL-ORIGIN LEVEL: 0 DIFFERENT FILL-ORIGIN LEVEL: 0

LLC SPEC fills:          0  NON-SPEC fills:      14087
LLC Test counter :      91833
LLC Leapfrog:          0
LLC MSHR merge:          0
LLC TOTAL     ACCESS:    4585697  HIT:    1048973  MISS:    3536724  HIT %:    22.8749  MISS %:    77.1251   MPKI: 17.6836
LLC LOAD      TOTAL       ACCESS:      63615  HIT:          5  MISS:      63610  HIT %: 0.00785978  MISS %:    99.9921   MPKI: 0.31805
LLC LOAD      NON_SPEC    ACCESS:      14087  HIT:          0  MISS:      14087  HIT %:          0  MISS %:        100   MPKI: 0.070435
LLC LOAD      SPEC        ACCESS:      49528  HIT:          5  MISS:      49523  HIT %:  0.0100953  MISS %:    99.9899   MPKI: 0.247615
LLC RFO       NON_SPEC    ACCESS:          1  HIT:          0  MISS:          1  HIT %:          0  MISS %:        100   MPKI: 5e-06
LLC PREFETCH  NON_SPEC    ACCESS:    3416543  HIT:         20  MISS:    3416523  HIT %: 0.000585387  MISS %:    99.9994   MPKI: 17.0826
LLC WRITEBACK NON_SPEC    ACCESS:    1005927  HIT:    1005926  MISS:          1  HIT %:    99.9999  MISS %: 9.94108e-05   MPKI: 5e-06
LLC CLEAN_EVICTION NON_SPEC    ACCESS:      92378  HIT:      43006  MISS:      49372  HIT %:    46.5544  MISS %:    53.4456   MPKI: 0.24686
LLC COMMIT LOAD NON_SPEC    ACCESS:        237  HIT:          6  MISS:        231  HIT %:    2.53165  MISS %:    97.4684   MPKI: 0.001155
LLC LOAD TRANSLATION NON_SPEC    ACCESS:        220  HIT:         10  MISS:        210  HIT %:    4.54545  MISS %:    95.4545   MPKI: 0.00105
LLC TRANSLATION FROM L1D PREFETCHER NON_SPEC    ACCESS:       6776  HIT:          0  MISS:       6776  HIT %:          0  MISS %:        100   MPKI: 0.03388
LLC PREFETCH  REQUESTED:          0  ISSUED:          0  USEFUL:          8  USELESS:    3423501
LLC USEFUL LOAD PREFETCHES:          8 PREFETCH ISSUED TO LOWER LEVEL:    3416528  ACCURACY: 0.000234156
LLC TIMELY PREFETCHES:          8 LATE PREFETCHES: 0 DROPPED PREFETCHES: 0
LLC COMMIT LATE PREFETCHES: 0 MISSED OPPORTUNITY: 0 LATE IN PQ: 0 UNCOVERED: 0
LLC COMMIT LATE MSHR PREFETCHES: 0
LLC MPKI TOTAL: 0.31805 MSHR LATE: 0 PQ LATE: 0 COMMIT LATE: 0 MISSED OPPORTUNITY: 0 UNCOVERED: 0
LLC PREFETCHES SAME FILL-ORIGIN LEVEL: 0 DIFFERENT FILL-ORIGIN LEVEL: 0
LLC AVERAGE MISS LATENCY: 181.106 cycles
LLC AVERAGE MISS LATENCY LOAD: 149.965 cycles
LLC AVERAGE MISS LATENCY PREFETCH: 184.238 cycles
LLC AVERAGE MSHR OCCUPANCY: 2.54654
LLC MSHR FULL: 0
LLC RQ	ACCESS:      70849	FORWARD:          0	MERGED:          0	TO_CACHE:      70849
LLC WQ	ACCESS:    1098305	FORWARD:          0	MERGED:          0	TO_CACHE:    1098305
LLC PQ	ACCESS:    3416548	FORWARD:          0	MERGED:          0	TO_CACHE:    3416548

LLC Dense regions hint to LLC: 0

RAW hits: 325947
Loads Generated: 70745805
Loads sent to L1D: 70419851
Stores Generated: 9834442
Stores sent to L1D: 9834442
Major fault: 0 Minor fault: 54759
Allocated PAGES: 54759
Total Load insts: 87503806
Total Non-spec loads: 7640308
Percentage of speculative loads: 91.2686

LeapFrogging counter: 3488
Commit hits: 39820254 miss: 23338359
Commit hit %: 63.048 miss %: 36.952
Commits not translated: 0
Loads retired: 128083
Stores retired: 9834442
Cache fills: 128083
L1D response latency: 115.138 cycles
Load retirement latency: 210.391 cycles
OOO test counter: 0
Discarded buffer inserts: 39820254 hits: 734 hit %: 0.00184328
Filter prediction accuracy: 99.9984
ALL MISSES SIZE: 410
LATENCY_FILL: 114.586 128077
LATENCY_FILL_ROB: 135.542 128047
test counter pref: 676385
Max ROB Extended: 13

DRAM Statistics
 CHANNEL 0
 RQ ROW_BUFFER_HIT:     979958  ROW_BUFFER_MISS:    2507393
 DBUS_CONGESTED:       3942
 WQ ROW_BUFFER_HIT:     434168  ROW_BUFFER_MISS:     664428  FULL:          0

 AVG_CONGESTED_CYCLE: 5
 All warmup complete: 2
Channel 0 Bank busy for read cycles: 0
Channel 0 Bank busy for write cycles: 0
Channel 0
Rank 0
0banks busy for read cycles: 4866981
0banks busy for write cycles: 19661
1banks busy for read cycles: 51061795
1banks busy for write cycles: 2839662
2banks busy for read cycles: 39898181
2banks busy for write cycles: 2155138
3banks busy for read cycles: 25601918
3banks busy for write cycles: 1964948
4banks busy for read cycles: 14790496
4banks busy for write cycles: 1974256
5banks busy for read cycles: 8971756
5banks busy for write cycles: 2135563
6banks busy for read cycles: 6136589
6banks busy for write cycles: 2564475
7banks busy for read cycles: 5016339
7banks busy for write cycles: 4243980
8banks busy for read cycles: 5375923
8banks busy for write cycles: 22383114

CPU 0 Branch Prediction Accuracy: 99.9985% MPKI: 0.000105 Average ROB Occupancy at Mispredict: 67.3333
Branch types
NOT_BRANCH: 198619014 99.3095%
BRANCH_DIRECT_JUMP: 0 0%
BRANCH_INDIRECT: 0 0%
BRANCH_CONDITIONAL: 1380806 0.690403%
BRANCH_DIRECT_CALL: 0 0%
BRANCH_INDIRECT_CALL: 0 0%
BRANCH_RETURN: 0 0%
BRANCH_OTHER: 0 0%

DRAM PAGES: 1048576
Allocated PAGES: 54759
