
*** ChampSim Multicore Out-of-Order Simulator ***

Warmup Instructions: 50000000
Simulation Instructions: 200000000
Number of CPUs: 1
LLC sets: 2048
LLC ways: 16
L0D sets: 16
L0D ways: 2
ROB size: 352
LQ size: 128
SQ size: 72
Secure Berti: ON
Berti: ON
Berti Fill: ON
On commit prefetching: OFF
Hit-based filter: ON
Time-guarding: ON
Free-slotting: ON
Leap-frogging: ON
Train prefetcher on L0D bypass: OFF
No translation penalty for prefetchers: OFF
Prefetch to L0D only: OFF
Prefetch to L1D only: OFF
Clean evictions: ON
Commit loads: ON
Commit write: ON
Fill commit loads to L2C, LLC: ON
DRAM IO FREQUENCY: 6400
ROB SIZE: 352
Off-chip DRAM Size: 4096 MB Channels: 1 Width: 64-bit Data Rate: 6400 MT/s
CPU 0 runs /home/sumon/secure_berti/GhostMinion/../../traces/spec/654.roms_s-523B.champsimtrace.xz
.xz
BTB has LRU replacement policy
ITLB has LRU replacement policy
DTLB has LRU replacement policy
STLB has LRU replacement policy
L1I has LRU replacement policy
L0D has LRU replacement policy
Berti version on_commit
History Sets: 8
History Ways: 16
BERTI Size: 16
BERTI Stride Size: 16
L1D has LRU replacement policy
L2C has LRU replacement policy
LLC has LRU replacement policy
Heartbeat CPU 0 instructions: 10000002 cycles: 3254821 heartbeat IPC: 3.07237 cumulative IPC: 3.07237 (Simulation time: 0 hr 0 min 35 sec) 
Heartbeat CPU 0 instructions: 20000003 cycles: 6410677 heartbeat IPC: 3.16871 cumulative IPC: 3.1198 (Simulation time: 0 hr 1 min 6 sec) 
Heartbeat CPU 0 instructions: 30000003 cycles: 10244707 heartbeat IPC: 2.60822 cumulative IPC: 2.92834 (Simulation time: 0 hr 1 min 52 sec) 
Heartbeat CPU 0 instructions: 40000001 cycles: 13673654 heartbeat IPC: 2.91635 cumulative IPC: 2.92533 (Simulation time: 0 hr 2 min 32 sec) 
Heartbeat CPU 0 instructions: 50000001 cycles: 17067980 heartbeat IPC: 2.94609 cumulative IPC: 2.92946 (Simulation time: 0 hr 3 min 16 sec) 

Warmup complete CPU 0 instructions: 50000001 cycles: 17067980 (Simulation time: 0 hr 3 min 16 sec) 

Heartbeat CPU 0 instructions: 60000003 cycles: 27372949 heartbeat IPC: 0.970406 cumulative IPC: 0.970406 (Simulation time: 0 hr 4 min 4 sec) 
Heartbeat CPU 0 instructions: 70000000 cycles: 36891442 heartbeat IPC: 1.05059 cumulative IPC: 1.00891 (Simulation time: 0 hr 4 min 52 sec) 
Heartbeat CPU 0 instructions: 80000001 cycles: 45731319 heartbeat IPC: 1.13124 cumulative IPC: 1.04663 (Simulation time: 0 hr 5 min 38 sec) 
Heartbeat CPU 0 instructions: 90000003 cycles: 56929494 heartbeat IPC: 0.893003 cumulative IPC: 1.00347 (Simulation time: 0 hr 6 min 18 sec) 
Heartbeat CPU 0 instructions: 100000001 cycles: 68064544 heartbeat IPC: 0.898065 cumulative IPC: 0.980458 (Simulation time: 0 hr 6 min 53 sec) 
Heartbeat CPU 0 instructions: 110000000 cycles: 81083581 heartbeat IPC: 0.768106 cumulative IPC: 0.937272 (Simulation time: 0 hr 7 min 48 sec) 
Heartbeat CPU 0 instructions: 120000001 cycles: 94723592 heartbeat IPC: 0.733137 cumulative IPC: 0.901416 (Simulation time: 0 hr 8 min 37 sec) 
Heartbeat CPU 0 instructions: 130000001 cycles: 105077212 heartbeat IPC: 0.965846 cumulative IPC: 0.908996 (Simulation time: 0 hr 9 min 24 sec) 
Heartbeat CPU 0 instructions: 140000001 cycles: 115341883 heartbeat IPC: 0.974215 cumulative IPC: 0.915808 (Simulation time: 0 hr 10 min 12 sec) 
Heartbeat CPU 0 instructions: 150000003 cycles: 124634747 heartbeat IPC: 1.07609 cumulative IPC: 0.929655 (Simulation time: 0 hr 11 min 0 sec) 
Heartbeat CPU 0 instructions: 160000002 cycles: 133348045 heartbeat IPC: 1.14767 cumulative IPC: 0.945992 (Simulation time: 0 hr 11 min 46 sec) 
Heartbeat CPU 0 instructions: 170000000 cycles: 144591257 heartbeat IPC: 0.889425 cumulative IPC: 0.941005 (Simulation time: 0 hr 12 min 26 sec) 
Heartbeat CPU 0 instructions: 180000002 cycles: 155579664 heartbeat IPC: 0.91005 cumulative IPC: 0.938549 (Simulation time: 0 hr 13 min 0 sec) 
Heartbeat CPU 0 instructions: 190000002 cycles: 168679610 heartbeat IPC: 0.763362 cumulative IPC: 0.923412 (Simulation time: 0 hr 13 min 54 sec) 
Heartbeat CPU 0 instructions: 200000003 cycles: 182318844 heartbeat IPC: 0.733179 cumulative IPC: 0.907711 (Simulation time: 0 hr 14 min 43 sec) 
Heartbeat CPU 0 instructions: 210000001 cycles: 192872196 heartbeat IPC: 0.947566 cumulative IPC: 0.910103 (Simulation time: 0 hr 15 min 29 sec) 
Heartbeat CPU 0 instructions: 220000000 cycles: 203277114 heartbeat IPC: 0.961084 cumulative IPC: 0.912952 (Simulation time: 0 hr 16 min 22 sec) 
Heartbeat CPU 0 instructions: 230000000 cycles: 212608858 heartbeat IPC: 1.07161 cumulative IPC: 0.920524 (Simulation time: 0 hr 18 min 0 sec) 
Heartbeat CPU 0 instructions: 240000000 cycles: 221239702 heartbeat IPC: 1.15864 cumulative IPC: 0.930589 (Simulation time: 0 hr 19 min 22 sec) 
Heartbeat CPU 0 instructions: 250000001 cycles: 232541478 heartbeat IPC: 0.884817 cumulative IPC: 0.928188 (Simulation time: 0 hr 20 min 57 sec) 
Finished CPU 0 instructions: 200000000 cycles: 215473498 cumulative IPC: 0.928188 (Simulation time: 0 hr 20 min 57 sec) 
 Instruction ID: 250000046

ChampSim completed all CPUs

Region of Interest Statistics

CPU 0 cumulative IPC: 0.928188 instructions: 200000000 cycles: 215473498
ITLB SPEC fills:          0  NON-SPEC fills:          0
ITLB Test counter :          0
ITLB Leapfrog:          0
ITLB MSHR merge:          0
ITLB TOTAL     ACCESS:   30391839  HIT:   30391839  MISS:          0  HIT %:        100  MISS %:          0   MPKI: 0
ITLB LOAD TRANSLATION NON_SPEC    ACCESS:   30391839  HIT:   30391839  MISS:          0  HIT %:        100  MISS %:          0   MPKI: 0
ITLB PREFETCH  REQUESTED:          0  ISSUED:          0  USEFUL:          0  USELESS:          0
ITLB USEFUL LOAD PREFETCHES:          0 PREFETCH ISSUED TO LOWER LEVEL:          0  ACCURACY: -nan
ITLB TIMELY PREFETCHES:          0 LATE PREFETCHES: 0 DROPPED PREFETCHES: 0
ITLB COMMIT LATE PREFETCHES: 0 MISSED OPPORTUNITY: 0 LATE IN PQ: 0 UNCOVERED: 0
ITLB COMMIT LATE MSHR PREFETCHES: 0
ITLB MPKI TOTAL: 0 MSHR LATE: 0 PQ LATE: 0 COMMIT LATE: 0 MISSED OPPORTUNITY: 0 UNCOVERED: 0
ITLB PREFETCHES SAME FILL-ORIGIN LEVEL: 0 DIFFERENT FILL-ORIGIN LEVEL: 0
ITLB AVERAGE MISS LATENCY: -nan cycles
ITLB AVERAGE MISS LATENCY LOAD: -nan cycles
ITLB AVERAGE MISS LATENCY PREFETCH: -nan cycles
ITLB AVERAGE MSHR OCCUPANCY: 0
ITLB MSHR FULL: 0
ITLB RQ	ACCESS:   36208083	FORWARD:          0	MERGED:    5816245	TO_CACHE:   30391838

DTLB SPEC fills:          0  NON-SPEC fills:          0
DTLB Test counter :          0
DTLB Leapfrog:          0
DTLB MSHR merge:          0
DTLB TOTAL     ACCESS:   62389149  HIT:   62288530  MISS:     100619  HIT %:    99.8387  MISS %:   0.161276   MPKI: 0.503095
DTLB LOAD TRANSLATION NON_SPEC    ACCESS:   62389149  HIT:   62288530  MISS:     100619  HIT %:    99.8387  MISS %:   0.161276   MPKI: 0.503095
DTLB PREFETCH  REQUESTED:          0  ISSUED:          0  USEFUL:          0  USELESS:          0
DTLB USEFUL LOAD PREFETCHES:          0 PREFETCH ISSUED TO LOWER LEVEL:          0  ACCURACY: -nan
DTLB TIMELY PREFETCHES:          0 LATE PREFETCHES: 0 DROPPED PREFETCHES: 0
DTLB COMMIT LATE PREFETCHES: 0 MISSED OPPORTUNITY: 0 LATE IN PQ: 0 UNCOVERED: 0
DTLB COMMIT LATE MSHR PREFETCHES: 0
DTLB MPKI TOTAL: 0 MSHR LATE: 0 PQ LATE: 0 COMMIT LATE: 0 MISSED OPPORTUNITY: 0 UNCOVERED: 0
DTLB PREFETCHES SAME FILL-ORIGIN LEVEL: 0 DIFFERENT FILL-ORIGIN LEVEL: 0
DTLB AVERAGE MISS LATENCY: 111.328 cycles
DTLB AVERAGE MISS LATENCY LOAD: -nan cycles
DTLB AVERAGE MISS LATENCY PREFETCH: -nan cycles
DTLB AVERAGE MSHR OCCUPANCY: 0.0209605
DTLB MSHR FULL: 0
DTLB RQ	ACCESS:   70209442	FORWARD:          0	MERGED:    7678014	TO_CACHE:   62531428

STLB SPEC fills:          0  NON-SPEC fills:          0
STLB Test counter :          0
STLB Leapfrog:          0
STLB MSHR merge:          0
STLB TOTAL     ACCESS:   20126725  HIT:   20026771  MISS:      99954  HIT %:    99.5034  MISS %:   0.496623   MPKI: 0.49977
STLB LOAD TRANSLATION NON_SPEC    ACCESS:     100619  HIT:      55640  MISS:      44979  HIT %:    55.2977  MISS %:    44.7023   MPKI: 0.224895
STLB TRANSLATION FROM L1D PREFETCHER NON_SPEC    ACCESS:   20026106  HIT:   19971131  MISS:      54975  HIT %:    99.7255  MISS %:   0.274517   MPKI: 0.274875
STLB PREFETCH  REQUESTED:          0  ISSUED:          0  USEFUL:      54965  USELESS:          9
STLB USEFUL LOAD PREFETCHES:      54965 PREFETCH ISSUED TO LOWER LEVEL:          0  ACCURACY: inf
STLB TIMELY PREFETCHES:      54965 LATE PREFETCHES: 5722 DROPPED PREFETCHES: 792029
STLB COMMIT LATE PREFETCHES: 0 MISSED OPPORTUNITY: 0 LATE IN PQ: 0 UNCOVERED: 0
STLB COMMIT LATE MSHR PREFETCHES: 0
STLB MPKI TOTAL: 0 MSHR LATE: 0.02861 PQ LATE: 0 COMMIT LATE: 0 MISSED OPPORTUNITY: 0 UNCOVERED: 0
STLB PREFETCHES SAME FILL-ORIGIN LEVEL: 0 DIFFERENT FILL-ORIGIN LEVEL: 0
STLB AVERAGE MISS LATENCY: 167.313 cycles
STLB AVERAGE MISS LATENCY LOAD: -nan cycles
STLB AVERAGE MISS LATENCY PREFETCH: -nan cycles
STLB AVERAGE MSHR OCCUPANCY: 0.156928
STLB MSHR FULL: 0
STLB RQ	ACCESS:   83328007	FORWARD:          0	MERGED:   62263770	TO_CACHE:   21064237

STLB Hit, L1D data hit: 0
STLB Hit, L2C data hit: 0
STLB Hit, LLC data hit: 0
STLB Hit, LLC data miss: 0
STLB STLB hints to L2: 0
L0D SPEC fills:   33733489  NON-SPEC fills:          0
L0D TimeGuard Request with older TS:     716425 Restricted eviction:     220914 read:     956758
L0D Test counter :          0
L0D Leapfrog:          0
L0D MSHR merge:    2765946
L0D TOTAL     ACCESS:   56039739  HIT:   16034641  MISS:   40005098  HIT %:     28.613  MISS %:     71.387   MPKI: 200.025
L0D LOAD      TOTAL       ACCESS:   56039739  HIT:   16034641  MISS:   40005098  HIT %:     28.613  MISS %:     71.387   MPKI: 200.025
L0D LOAD      NON_SPEC    ACCESS:    6384117  HIT:     332384  MISS:    6051733  HIT %:    5.20642  MISS %:    94.7936   MPKI: 30.2587
L0D LOAD      SPEC        ACCESS:   49655622  HIT:   15702257  MISS:   33953365  HIT %:    31.6223  MISS %:    68.3777   MPKI: 169.767
L0D PREFETCH  REQUESTED:          0  ISSUED:          0  USEFUL:          0  USELESS:          0
L0D USEFUL LOAD PREFETCHES:          0 PREFETCH ISSUED TO LOWER LEVEL:          0  ACCURACY: -nan
L0D TIMELY PREFETCHES:          0 LATE PREFETCHES: 0 DROPPED PREFETCHES: 0
L0D COMMIT LATE PREFETCHES: 0 MISSED OPPORTUNITY: 0 LATE IN PQ: 0 UNCOVERED: 0
L0D COMMIT LATE MSHR PREFETCHES: 0
L0D MPKI TOTAL: 213.855 MSHR LATE: 0 PQ LATE: 0 COMMIT LATE: 0 MISSED OPPORTUNITY: 0 UNCOVERED: 0
L0D PREFETCHES SAME FILL-ORIGIN LEVEL: 0 DIFFERENT FILL-ORIGIN LEVEL: 0
L0D AVERAGE MISS LATENCY: 6.05239 cycles
L0D AVERAGE MISS LATENCY LOAD: 6.05239 cycles
L0D AVERAGE MISS LATENCY PREFETCH: -nan cycles
L0D AVERAGE MSHR OCCUPANCY: 1.1875
L0D MSHR FULL: 5.03839e-05
L0D RQ	ACCESS:   74182446	FORWARD:          0	MERGED:   15376770	TO_CACHE:   58805676
L0D WQ	ACCESS:   11403766	FORWARD:          0	MERGED:          0	TO_CACHE:   11403766

L1D SPEC fills:          0  NON-SPEC fills:      32150
L1D Test counter :     269821
L1D Leapfrog:          0
L1D MSHR merge:     110701
L1D TOTAL     ACCESS:  107097889  HIT:  101989784  MISS:    5108105  HIT %:    95.2304  MISS %:    4.76957   MPKI: 25.5405
L1D LOAD      TOTAL       ACCESS:   40003433  HIT:   39670130  MISS:     333303  HIT %:    99.1668  MISS %:   0.833186   MPKI: 1.66651
L1D LOAD      NON_SPEC    ACCESS:    6051673  HIT:    6019523  MISS:      32150  HIT %:    99.4687  MISS %:   0.531258   MPKI: 0.16075
L1D LOAD      SPEC        ACCESS:   33951760  HIT:   33650607  MISS:     301153  HIT %:     99.113  MISS %:   0.887003   MPKI: 1.50577
L1D RFO       NON_SPEC    ACCESS:    3602488  HIT:    2394169  MISS:    1208319  HIT %:    66.4588  MISS %:    33.5412   MPKI: 6.0416
L1D PREFETCH  NON_SPEC    ACCESS:   62691887  HIT:   59382490  MISS:    3309397  HIT %:    94.7212  MISS %:    5.27883   MPKI: 16.547
L1D COMMIT LOAD NON_SPEC    ACCESS:     439420  HIT:     435703  MISS:       3717  HIT %:    99.1541  MISS %:   0.845888   MPKI: 0.018585
L1D COMMIT WRITE NON_SPEC    ACCESS:     360661  HIT:     107292  MISS:     253369  HIT %:    29.7487  MISS %:    70.2513   MPKI: 1.26684
L1D PREFETCH  REQUESTED:  258182260  ISSUED:  108328984  USEFUL:    2960592  USELESS:     348890
L1D USEFUL LOAD PREFETCHES:    2960592 PREFETCH ISSUED TO LOWER LEVEL:   17679062  ACCURACY: 16.7463
L1D TIMELY PREFETCHES:    2960592 LATE PREFETCHES: 109216 DROPPED PREFETCHES: 1717112
L1D COMMIT LATE PREFETCHES: 0 MISSED OPPORTUNITY: 0 LATE IN PQ: 0 UNCOVERED: 0
L1D COMMIT LATE MSHR PREFETCHES: 0
L1D MPKI TOTAL: 1.67484 MSHR LATE: 0.54608 PQ LATE: 0 COMMIT LATE: 0 MISSED OPPORTUNITY: 0 UNCOVERED: 0
L1D PREFETCHES SAME FILL-ORIGIN LEVEL: 3418852 DIFFERENT FILL-ORIGIN LEVEL: 14260210
L1D AVERAGE MISS LATENCY: 182.446 cycles
L1D AVERAGE MISS LATENCY LOAD: 112.08 cycles
L1D AVERAGE MISS LATENCY PREFETCH: 144.085 cycles
L1D AVERAGE MSHR OCCUPANCY: 4.78111
L1D MSHR FULL: 0.00438868
L1D RQ	ACCESS:   40857396	FORWARD:          0	MERGED:     398814	TO_CACHE:   40447384
L1D WQ	ACCESS:   11772972	FORWARD:      11198	MERGED:      25414	TO_CACHE:   11747558
L1D PQ	ACCESS:  108328984	FORWARD:          0	MERGED:   25101596	TO_CACHE:   83227388

L1D UNIQUE REGIONS ACCESSED: 0
L1D REGIONS CONFLICTS: 0
L1D Cross Page Prefetch Requests: 19872839
L1D Same Page Prefetch Requests: 119969989
L1D ROI Sum of L1D PQ occupancy: 2092154107
L1D PREFETCHES PUSHED FROM L2C: 0
L1I SPEC fills:          0  NON-SPEC fills:          0
L1I Test counter :          0
L1I Leapfrog:          0
L1I MSHR merge:         13
L1I TOTAL     ACCESS:   36208070  HIT:   36208038  MISS:         32  HIT %:    99.9999  MISS %: 8.83781e-05   MPKI: 0.00016
L1I LOAD      TOTAL       ACCESS:   36208070  HIT:   36208038  MISS:         32  HIT %:    99.9999  MISS %: 8.83781e-05   MPKI: 0.00016
L1I LOAD      NON_SPEC    ACCESS:   36208070  HIT:   36208038  MISS:         32  HIT %:    99.9999  MISS %: 8.83781e-05   MPKI: 0.00016
L1I PREFETCH  REQUESTED:          0  ISSUED:          0  USEFUL:          0  USELESS:          0
L1I USEFUL LOAD PREFETCHES:          0 PREFETCH ISSUED TO LOWER LEVEL:          0  ACCURACY: -nan
L1I TIMELY PREFETCHES:          0 LATE PREFETCHES: 0 DROPPED PREFETCHES: 0
L1I COMMIT LATE PREFETCHES: 0 MISSED OPPORTUNITY: 0 LATE IN PQ: 0 UNCOVERED: 0
L1I COMMIT LATE MSHR PREFETCHES: 0
L1I MPKI TOTAL: 0.000225 MSHR LATE: 0 PQ LATE: 0 COMMIT LATE: 0 MISSED OPPORTUNITY: 0 UNCOVERED: 0
L1I PREFETCHES SAME FILL-ORIGIN LEVEL: 0 DIFFERENT FILL-ORIGIN LEVEL: 0
L1I AVERAGE MISS LATENCY: 315.344 cycles
L1I AVERAGE MISS LATENCY LOAD: 315.344 cycles
L1I AVERAGE MISS LATENCY PREFETCH: -nan cycles
L1I AVERAGE MSHR OCCUPANCY: 1.04949e-06
L1I MSHR FULL: 0
L1I RQ	ACCESS:   53134453	FORWARD:          0	MERGED:   16926370	TO_CACHE:   36208083

BTB SPEC fills:          0  NON-SPEC fills:          0
BTB Test counter :          0
BTB Leapfrog:          0
BTB MSHR merge:          0
BTB TOTAL     ACCESS:   12959621  HIT:   12959575  MISS:         46  HIT %:    99.9996  MISS %: 0.000354949   MPKI: 0.00023
BTB BRANCH_DIRECT_JUMP	ACCESS:    1451293  HIT:    1451288  MISS:          5
BTB BRANCH_INDIRECT	ACCESS:          0  HIT:          0  MISS:          0
BTB BRANCH_CONDITIONAL	ACCESS:   11508328  HIT:   11508287  MISS:         41
BTB BRANCH_DIRECT_CALL	ACCESS:          0  HIT:          0  MISS:          0
BTB BRANCH_INDIRECT_CALL	ACCESS:          0  HIT:          0  MISS:          0
BTB BRANCH_RETURN	ACCESS:          0  HIT:          0  MISS:          0
BTB BRANCH_OTHER ACCESS:          0  HIT:          0  MISS:          0

L2C SPEC fills:          0  NON-SPEC fills:      11234
L2C Test counter :     227379
L2C Leapfrog:          0
L2C MSHR merge:      17866
L2C TOTAL     ACCESS:   19161064  HIT:   14114017  MISS:    5047047  HIT %:    73.6599  MISS %:    26.3401   MPKI: 25.2352
L2C LOAD      TOTAL       ACCESS:     224002  HIT:     145718  MISS:      78284  HIT %:    65.0521  MISS %:    34.9479   MPKI: 0.39142
L2C LOAD      NON_SPEC    ACCESS:      24531  HIT:      13265  MISS:      11266  HIT %:    54.0744  MISS %:    45.9256   MPKI: 0.05633
L2C LOAD      SPEC        ACCESS:     199471  HIT:     132453  MISS:      67018  HIT %:    66.4021  MISS %:    33.5979   MPKI: 0.33509
L2C RFO       NON_SPEC    ACCESS:    1208313  HIT:        122  MISS:    1208191  HIT %:  0.0100967  MISS %:    99.9899   MPKI: 6.04096
L2C PREFETCH  NON_SPEC    ACCESS:   11528848  HIT:    7839806  MISS:    3689042  HIT %:    68.0016  MISS %:    31.9984   MPKI: 18.4452
L2C WRITEBACK NON_SPEC    ACCESS:    1441625  HIT:    1441594  MISS:         31  HIT %:    99.9978  MISS %: 0.00215035   MPKI: 0.000155
L2C CLEAN_EVICTION NON_SPEC    ACCESS:     269820  HIT:     219497  MISS:      50323  HIT %:    81.3494  MISS %:    18.6506   MPKI: 0.251615
L2C COMMIT LOAD NON_SPEC    ACCESS:       3537  HIT:       3289  MISS:        248  HIT %:    92.9884  MISS %:    7.01159   MPKI: 0.00124
L2C LOAD TRANSLATION NON_SPEC    ACCESS:     223590  HIT:     216238  MISS:       7352  HIT %:    96.7118  MISS %:    3.28816   MPKI: 0.03676
L2C TRANSLATION FROM L1D PREFETCHER NON_SPEC    ACCESS:    4261329  HIT:    4247753  MISS:      13576  HIT %:    99.6814  MISS %:   0.318586   MPKI: 0.06788
L2C PREFETCH  REQUESTED:          0  ISSUED:          0  USEFUL:      98121  USELESS:    3604431
L2C USEFUL LOAD PREFETCHES:      98121 PREFETCH ISSUED TO LOWER LEVEL:    3706936  ACCURACY: 2.64696
L2C TIMELY PREFETCHES:      98121 LATE PREFETCHES: 17893 DROPPED PREFETCHES: 0
L2C COMMIT LATE PREFETCHES: 0 MISSED OPPORTUNITY: 0 LATE IN PQ: 0 UNCOVERED: 0
L2C COMMIT LATE MSHR PREFETCHES: 0
L2C MPKI TOTAL: 0.39142 MSHR LATE: 0.089465 PQ LATE: 0 COMMIT LATE: 0 MISSED OPPORTUNITY: 0 UNCOVERED: 0
L2C PREFETCHES SAME FILL-ORIGIN LEVEL: 2462911 DIFFERENT FILL-ORIGIN LEVEL: 0
L2C AVERAGE MISS LATENCY: 311.52 cycles
L2C AVERAGE MISS LATENCY LOAD: 220.586 cycles
L2C AVERAGE MISS LATENCY PREFETCH: 311.402 cycles
L2C AVERAGE MSHR OCCUPANCY: 7.29674
L2C MSHR FULL: 0.00866506
L2C RQ	ACCESS:    5921073	FORWARD:          0	MERGED:          0	TO_CACHE:    5920771
L2C WQ	ACCESS:    1711447	FORWARD:        307	MERGED:          2	TO_CACHE:    1711445
L2C PQ	ACCESS:   17658541	FORWARD:          0	MERGED:       9986	TO_CACHE:   17648550

L2C Instructions Evicting Data 32
L2C Translations Evicting Data 20847
L2C Data Evicting Data 4888100
L2C Instructions Evicting Instructions 0
L2C Translations Evicting Instructions 0
L2C Data Evicting Instructions 32
L2C Instructions Evicting Translations 0
L2C Translations Evicting Translations 81
L2C Data Evicting Translations 20583
L2C Dense regions hint from L2: 0
PSCL5 SPEC fills:          0  NON-SPEC fills:          0
PSCL5 Test counter :          0
PSCL5 Leapfrog:          0
PSCL5 MSHR merge:          0
PSCL5 TOTAL     ACCESS:          0  HIT:          0  MISS:          0  HIT %:       -nan  MISS %:       -nan   MPKI: 0
PSCL5 PREFETCH  REQUESTED:          0  ISSUED:          0  USEFUL:          0  USELESS:          0
PSCL5 USEFUL LOAD PREFETCHES:          0 PREFETCH ISSUED TO LOWER LEVEL:          0  ACCURACY: -nan
PSCL5 TIMELY PREFETCHES:          0 LATE PREFETCHES: 0 DROPPED PREFETCHES: 0
PSCL5 COMMIT LATE PREFETCHES: 0 MISSED OPPORTUNITY: 0 LATE IN PQ: 0 UNCOVERED: 0
PSCL5 COMMIT LATE MSHR PREFETCHES: 0
PSCL5 MPKI TOTAL: 0 MSHR LATE: 0 PQ LATE: 0 COMMIT LATE: 0 MISSED OPPORTUNITY: 0 UNCOVERED: 0
PSCL5 PREFETCHES SAME FILL-ORIGIN LEVEL: 0 DIFFERENT FILL-ORIGIN LEVEL: 0

PSCL4 SPEC fills:          0  NON-SPEC fills:          0
PSCL4 Test counter :          0
PSCL4 Leapfrog:          0
PSCL4 MSHR merge:          0
PSCL4 TOTAL     ACCESS:          0  HIT:          0  MISS:          0  HIT %:       -nan  MISS %:       -nan   MPKI: 0
PSCL4 PREFETCH  REQUESTED:          0  ISSUED:          0  USEFUL:          0  USELESS:          0
PSCL4 USEFUL LOAD PREFETCHES:          0 PREFETCH ISSUED TO LOWER LEVEL:          0  ACCURACY: -nan
PSCL4 TIMELY PREFETCHES:          0 LATE PREFETCHES: 0 DROPPED PREFETCHES: 0
PSCL4 COMMIT LATE PREFETCHES: 0 MISSED OPPORTUNITY: 0 LATE IN PQ: 0 UNCOVERED: 0
PSCL4 COMMIT LATE MSHR PREFETCHES: 0
PSCL4 MPKI TOTAL: 0 MSHR LATE: 0 PQ LATE: 0 COMMIT LATE: 0 MISSED OPPORTUNITY: 0 UNCOVERED: 0
PSCL4 PREFETCHES SAME FILL-ORIGIN LEVEL: 0 DIFFERENT FILL-ORIGIN LEVEL: 0

PSCL3 SPEC fills:          0  NON-SPEC fills:          0
PSCL3 Test counter :          0
PSCL3 Leapfrog:          0
PSCL3 MSHR merge:          0
PSCL3 TOTAL     ACCESS:          0  HIT:          0  MISS:          0  HIT %:       -nan  MISS %:       -nan   MPKI: 0
PSCL3 PREFETCH  REQUESTED:          0  ISSUED:          0  USEFUL:          0  USELESS:          0
PSCL3 USEFUL LOAD PREFETCHES:          0 PREFETCH ISSUED TO LOWER LEVEL:          0  ACCURACY: -nan
PSCL3 TIMELY PREFETCHES:          0 LATE PREFETCHES: 0 DROPPED PREFETCHES: 0
PSCL3 COMMIT LATE PREFETCHES: 0 MISSED OPPORTUNITY: 0 LATE IN PQ: 0 UNCOVERED: 0
PSCL3 COMMIT LATE MSHR PREFETCHES: 0
PSCL3 MPKI TOTAL: 0 MSHR LATE: 0 PQ LATE: 0 COMMIT LATE: 0 MISSED OPPORTUNITY: 0 UNCOVERED: 0
PSCL3 PREFETCHES SAME FILL-ORIGIN LEVEL: 0 DIFFERENT FILL-ORIGIN LEVEL: 0

PSCL2 SPEC fills:          0  NON-SPEC fills:          0
PSCL2 Test counter :          0
PSCL2 Leapfrog:          0
PSCL2 MSHR merge:          0
PSCL2 TOTAL     ACCESS:          0  HIT:          0  MISS:          0  HIT %:       -nan  MISS %:       -nan   MPKI: 0
PSCL2 PREFETCH  REQUESTED:          0  ISSUED:          0  USEFUL:          0  USELESS:          0
PSCL2 USEFUL LOAD PREFETCHES:          0 PREFETCH ISSUED TO LOWER LEVEL:          0  ACCURACY: -nan
PSCL2 TIMELY PREFETCHES:          0 LATE PREFETCHES: 0 DROPPED PREFETCHES: 0
PSCL2 COMMIT LATE PREFETCHES: 0 MISSED OPPORTUNITY: 0 LATE IN PQ: 0 UNCOVERED: 0
PSCL2 COMMIT LATE MSHR PREFETCHES: 0
PSCL2 MPKI TOTAL: 0 MSHR LATE: 0 PQ LATE: 0 COMMIT LATE: 0 MISSED OPPORTUNITY: 0 UNCOVERED: 0
PSCL2 PREFETCHES SAME FILL-ORIGIN LEVEL: 0 DIFFERENT FILL-ORIGIN LEVEL: 0

LLC SPEC fills:          0  NON-SPEC fills:       9643
LLC Test counter :     226601
LLC Leapfrog:          0
LLC MSHR merge:          0
LLC TOTAL     ACCESS:    6665389  HIT:    1635703  MISS:    5029686  HIT %:    24.5402  MISS %:    75.4598   MPKI: 25.1484
LLC LOAD      TOTAL       ACCESS:      60418  HIT:        905  MISS:      59513  HIT %:     1.4979  MISS %:    98.5021   MPKI: 0.297565
LLC LOAD      NON_SPEC    ACCESS:       9733  HIT:         58  MISS:       9675  HIT %:   0.595911  MISS %:    99.4041   MPKI: 0.048375
LLC LOAD      SPEC        ACCESS:      50685  HIT:        847  MISS:      49838  HIT %:    1.67111  MISS %:    98.3289   MPKI: 0.24919
LLC RFO       NON_SPEC    ACCESS:    1208191  HIT:          2  MISS:    1208189  HIT %: 0.000165537  MISS %:    99.9998   MPKI: 6.04094
LLC PREFETCH  NON_SPEC    ACCESS:    3706935  HIT:       1855  MISS:    3705080  HIT %:  0.0500413  MISS %:      99.95   MPKI: 18.5254
LLC WRITEBACK NON_SPEC    ACCESS:    1441317  HIT:    1441291  MISS:         26  HIT %:    99.9982  MISS %: 0.00180391   MPKI: 0.00013
LLC CLEAN_EVICTION NON_SPEC    ACCESS:     227379  HIT:     191628  MISS:      35751  HIT %:    84.2769  MISS %:    15.7231   MPKI: 0.178755
LLC COMMIT LOAD NON_SPEC    ACCESS:        221  HIT:         22  MISS:        199  HIT %:    9.95475  MISS %:    90.0452   MPKI: 0.000995
LLC LOAD TRANSLATION NON_SPEC    ACCESS:       7352  HIT:          0  MISS:       7352  HIT %:          0  MISS %:        100   MPKI: 0.03676
LLC TRANSLATION FROM L1D PREFETCHER NON_SPEC    ACCESS:      13576  HIT:          0  MISS:      13576  HIT %:          0  MISS %:        100   MPKI: 0.06788
LLC PREFETCH  REQUESTED:          0  ISSUED:          0  USEFUL:        830  USELESS:    3719133
LLC USEFUL LOAD PREFETCHES:        830 PREFETCH ISSUED TO LOWER LEVEL:    3705081  ACCURACY: 0.0224017
LLC TIMELY PREFETCHES:        830 LATE PREFETCHES: 0 DROPPED PREFETCHES: 0
LLC COMMIT LATE PREFETCHES: 0 MISSED OPPORTUNITY: 0 LATE IN PQ: 0 UNCOVERED: 0
LLC COMMIT LATE MSHR PREFETCHES: 0
LLC MPKI TOTAL: 0.297565 MSHR LATE: 0 PQ LATE: 0 COMMIT LATE: 0 MISSED OPPORTUNITY: 0 UNCOVERED: 0
LLC PREFETCHES SAME FILL-ORIGIN LEVEL: 0 DIFFERENT FILL-ORIGIN LEVEL: 0
LLC AVERAGE MISS LATENCY: 283.144 cycles
LLC AVERAGE MISS LATENCY LOAD: 214.682 cycles
LLC AVERAGE MISS LATENCY PREFETCH: 281.377 cycles
LLC AVERAGE MSHR OCCUPANCY: 7.1703
LLC MSHR FULL: 0
LLC RQ	ACCESS:    1289758	FORWARD:          0	MERGED:          0	TO_CACHE:    1289758
LLC WQ	ACCESS:    1668696	FORWARD:          0	MERGED:          0	TO_CACHE:    1668696
LLC PQ	ACCESS:    3706936	FORWARD:          0	MERGED:          0	TO_CACHE:    3706936

LLC Dense regions hint to LLC: 0

RAW hits: 22828
Loads Generated: 74205275
Loads sent to L1D: 74182446
Stores Generated: 11403765
Stores sent to L1D: 11403766
Major fault: 0 Minor fault: 35137
Allocated PAGES: 35137
Total Load insts: 91267129
Total Non-spec loads: 7749098
Percentage of speculative loads: 91.5094

LeapFrogging counter: 15846
Commit hits: 33273954 miss: 34257348
Commit hit %: 49.2719 miss %: 50.7281
Commits not translated: 0
Loads retired: 333303
Stores retired: 11403766
Cache fills: 333303
L1D response latency: 112.08 cycles
Load retirement latency: 185.067 cycles
OOO test counter: 0
Discarded buffer inserts: 33273954 hits: 13793 hit %: 0.0414528
Filter prediction accuracy: 99.9676
ALL MISSES SIZE: 12958
LATENCY_FILL: 109.298 334405
LATENCY_FILL_ROB: 146.279 334185
test counter pref: 3135322
Max ROB Extended: 20

DRAM Statistics
 CHANNEL 0
 RQ ROW_BUFFER_HIT:     659860  ROW_BUFFER_MISS:    4334049
 DBUS_CONGESTED:        237
 WQ ROW_BUFFER_HIT:     277899  ROW_BUFFER_MISS:    1388830  FULL:          0

 AVG_CONGESTED_CYCLE: 5
 All warmup complete: 2
Channel 0 Bank busy for read cycles: 0
Channel 0 Bank busy for write cycles: 0
Channel 0
Rank 0
0banks busy for read cycles: 161324
0banks busy for write cycles: 41
1banks busy for read cycles: 18845874
1banks busy for write cycles: 249653
2banks busy for read cycles: 27917391
2banks busy for write cycles: 250913
3banks busy for read cycles: 30665100
3banks busy for write cycles: 249308
4banks busy for read cycles: 27262164
4banks busy for write cycles: 250840
5banks busy for read cycles: 21249533
5banks busy for write cycles: 253546
6banks busy for read cycles: 17547868
6banks busy for write cycles: 276036
7banks busy for read cycles: 15319372
7banks busy for write cycles: 2301881
8banks busy for read cycles: 15478714
8banks busy for write cycles: 37193941

CPU 0 Branch Prediction Accuracy: 99.8522% MPKI: 0.096965 Average ROB Occupancy at Mispredict: 64.1541
Branch types
NOT_BRANCH: 186881132 93.4406%
BRANCH_DIRECT_JUMP: 1451293 0.725646%
BRANCH_INDIRECT: 0 0%
BRANCH_CONDITIONAL: 11667242 5.83362%
BRANCH_DIRECT_CALL: 0 0%
BRANCH_INDIRECT_CALL: 0 0%
BRANCH_RETURN: 0 0%
BRANCH_OTHER: 0 0%

DRAM PAGES: 1048576
Allocated PAGES: 35137
