
*** ChampSim Multicore Out-of-Order Simulator ***

Warmup Instructions: 50000000
Simulation Instructions: 200000000
Number of CPUs: 1
LLC sets: 2048
LLC ways: 16
L0D sets: 16
L0D ways: 2
ROB size: 352
LQ size: 128
SQ size: 72
Secure Berti: ON
Berti: ON
Berti Fill: ON
On commit prefetching: OFF
Hit-based filter: ON
Time-guarding: ON
Free-slotting: ON
Leap-frogging: ON
Train prefetcher on L0D bypass: OFF
No translation penalty for prefetchers: OFF
Prefetch to L0D only: OFF
Prefetch to L1D only: OFF
Clean evictions: ON
Commit loads: ON
Commit write: ON
Fill commit loads to L2C, LLC: ON
DRAM IO FREQUENCY: 6400
ROB SIZE: 352
Off-chip DRAM Size: 4096 MB Channels: 1 Width: 64-bit Data Rate: 6400 MT/s
CPU 0 runs /home/sumon/secure_berti/GhostMinion/../../traces/spec/654.roms_s-1390B.champsimtrace.xz
.xz
BTB has LRU replacement policy
ITLB has LRU replacement policy
DTLB has LRU replacement policy
STLB has LRU replacement policy
L1I has LRU replacement policy
L0D has LRU replacement policy
Berti version on_commit
History Sets: 8
History Ways: 16
BERTI Size: 16
BERTI Stride Size: 16
L1D has LRU replacement policy
L2C has LRU replacement policy
LLC has LRU replacement policy
Heartbeat CPU 0 instructions: 10000001 cycles: 4186430 heartbeat IPC: 2.38867 cumulative IPC: 2.38867 (Simulation time: 0 hr 0 min 55 sec) 
Heartbeat CPU 0 instructions: 20000002 cycles: 7817666 heartbeat IPC: 2.75388 cumulative IPC: 2.55831 (Simulation time: 0 hr 1 min 38 sec) 
Heartbeat CPU 0 instructions: 30000003 cycles: 11234435 heartbeat IPC: 2.92674 cumulative IPC: 2.67036 (Simulation time: 0 hr 2 min 16 sec) 
Heartbeat CPU 0 instructions: 40000002 cycles: 15275297 heartbeat IPC: 2.47472 cumulative IPC: 2.61861 (Simulation time: 0 hr 3 min 6 sec) 
Heartbeat CPU 0 instructions: 50000000 cycles: 19895468 heartbeat IPC: 2.16442 cumulative IPC: 2.51314 (Simulation time: 0 hr 4 min 1 sec) 

Warmup complete CPU 0 instructions: 50000001 cycles: 19895469 (Simulation time: 0 hr 4 min 1 sec) 

Heartbeat CPU 0 instructions: 60000001 cycles: 32287762 heartbeat IPC: 0.806953 cumulative IPC: 0.806953 (Simulation time: 0 hr 4 min 42 sec) 
Heartbeat CPU 0 instructions: 70000003 cycles: 44114569 heartbeat IPC: 0.845537 cumulative IPC: 0.825795 (Simulation time: 0 hr 5 min 21 sec) 
Heartbeat CPU 0 instructions: 80000002 cycles: 55953271 heartbeat IPC: 0.844687 cumulative IPC: 0.831998 (Simulation time: 0 hr 6 min 0 sec) 
Heartbeat CPU 0 instructions: 90000000 cycles: 67861073 heartbeat IPC: 0.839785 cumulative IPC: 0.833931 (Simulation time: 0 hr 6 min 56 sec) 
Heartbeat CPU 0 instructions: 100000000 cycles: 81222472 heartbeat IPC: 0.748425 cumulative IPC: 0.815302 (Simulation time: 0 hr 7 min 50 sec) 
Heartbeat CPU 0 instructions: 110000000 cycles: 94396586 heartbeat IPC: 0.759064 cumulative IPC: 0.805357 (Simulation time: 0 hr 8 min 40 sec) 
Heartbeat CPU 0 instructions: 120000001 cycles: 106552196 heartbeat IPC: 0.822666 cumulative IPC: 0.807785 (Simulation time: 0 hr 9 min 19 sec) 
Heartbeat CPU 0 instructions: 130000000 cycles: 118474325 heartbeat IPC: 0.838776 cumulative IPC: 0.811533 (Simulation time: 0 hr 10 min 3 sec) 
Heartbeat CPU 0 instructions: 140000001 cycles: 132735857 heartbeat IPC: 0.701187 cumulative IPC: 0.797587 (Simulation time: 0 hr 11 min 11 sec) 
Heartbeat CPU 0 instructions: 150000000 cycles: 145154527 heartbeat IPC: 0.805239 cumulative IPC: 0.798345 (Simulation time: 0 hr 12 min 8 sec) 
Heartbeat CPU 0 instructions: 160000002 cycles: 154548895 heartbeat IPC: 1.06447 cumulative IPC: 0.816912 (Simulation time: 0 hr 13 min 20 sec) 
Heartbeat CPU 0 instructions: 170000000 cycles: 164735224 heartbeat IPC: 0.981708 cumulative IPC: 0.828502 (Simulation time: 0 hr 14 min 28 sec) 
Heartbeat CPU 0 instructions: 180000003 cycles: 175373392 heartbeat IPC: 0.940012 cumulative IPC: 0.836132 (Simulation time: 0 hr 15 min 33 sec) 
Heartbeat CPU 0 instructions: 190000000 cycles: 187305535 heartbeat IPC: 0.838072 cumulative IPC: 0.83627 (Simulation time: 0 hr 16 min 38 sec) 
Heartbeat CPU 0 instructions: 200000003 cycles: 202279370 heartbeat IPC: 0.667832 cumulative IPC: 0.822441 (Simulation time: 0 hr 18 min 22 sec) 
Heartbeat CPU 0 instructions: 210000002 cycles: 211673577 heartbeat IPC: 1.06449 cumulative IPC: 0.834298 (Simulation time: 0 hr 20 min 27 sec) 
Heartbeat CPU 0 instructions: 220000000 cycles: 224365889 heartbeat IPC: 0.787878 cumulative IPC: 0.831416 (Simulation time: 0 hr 22 min 1 sec) 
Heartbeat CPU 0 instructions: 230000002 cycles: 239085752 heartbeat IPC: 0.679354 cumulative IPC: 0.821204 (Simulation time: 0 hr 23 min 17 sec) 
Heartbeat CPU 0 instructions: 240000002 cycles: 250133663 heartbeat IPC: 0.905149 cumulative IPC: 0.825232 (Simulation time: 0 hr 24 min 31 sec) 
Heartbeat CPU 0 instructions: 250000003 cycles: 259856850 heartbeat IPC: 1.02847 cumulative IPC: 0.833467 (Simulation time: 0 hr 25 min 46 sec) 
Finished CPU 0 instructions: 200000002 cycles: 239961381 cumulative IPC: 0.833467 (Simulation time: 0 hr 25 min 46 sec) 
 Instruction ID: 250000088

ChampSim completed all CPUs

Region of Interest Statistics

CPU 0 cumulative IPC: 0.833467 instructions: 200000002 cycles: 239961381
ITLB SPEC fills:          0  NON-SPEC fills:          0
ITLB Test counter :          0
ITLB Leapfrog:          0
ITLB MSHR merge:          0
ITLB TOTAL     ACCESS:   29415661  HIT:   29415654  MISS:          7  HIT %:        100  MISS %: 2.37968e-05   MPKI: 3.5e-05
ITLB LOAD TRANSLATION NON_SPEC    ACCESS:   29415661  HIT:   29415654  MISS:          7  HIT %:        100  MISS %: 2.37968e-05   MPKI: 3.5e-05
ITLB PREFETCH  REQUESTED:          0  ISSUED:          0  USEFUL:          0  USELESS:          0
ITLB USEFUL LOAD PREFETCHES:          0 PREFETCH ISSUED TO LOWER LEVEL:          0  ACCURACY: -nan
ITLB TIMELY PREFETCHES:          0 LATE PREFETCHES: 0 DROPPED PREFETCHES: 0
ITLB COMMIT LATE PREFETCHES: 0 MISSED OPPORTUNITY: 0 LATE IN PQ: 0 UNCOVERED: 0
ITLB COMMIT LATE MSHR PREFETCHES: 0
ITLB MPKI TOTAL: 0 MSHR LATE: 0 PQ LATE: 0 COMMIT LATE: 0 MISSED OPPORTUNITY: 0 UNCOVERED: 0
ITLB PREFETCHES SAME FILL-ORIGIN LEVEL: 0 DIFFERENT FILL-ORIGIN LEVEL: 0
ITLB AVERAGE MISS LATENCY: 635.429 cycles
ITLB AVERAGE MISS LATENCY LOAD: -nan cycles
ITLB AVERAGE MISS LATENCY PREFETCH: -nan cycles
ITLB AVERAGE MSHR OCCUPANCY: 3.39955e-08
ITLB MSHR FULL: 0
ITLB RQ	ACCESS:   35409844	FORWARD:          0	MERGED:    5994182	TO_CACHE:   29415662

DTLB SPEC fills:          0  NON-SPEC fills:          0
DTLB Test counter :          0
DTLB Leapfrog:          0
DTLB MSHR merge:          0
DTLB TOTAL     ACCESS:   62307745  HIT:   62137050  MISS:     170695  HIT %:     99.726  MISS %:   0.273955   MPKI: 0.853475
DTLB LOAD TRANSLATION NON_SPEC    ACCESS:   62307745  HIT:   62137050  MISS:     170695  HIT %:     99.726  MISS %:   0.273955   MPKI: 0.853475
DTLB PREFETCH  REQUESTED:          0  ISSUED:          0  USEFUL:          0  USELESS:          0
DTLB USEFUL LOAD PREFETCHES:          0 PREFETCH ISSUED TO LOWER LEVEL:          0  ACCURACY: -nan
DTLB TIMELY PREFETCHES:          0 LATE PREFETCHES: 0 DROPPED PREFETCHES: 0
DTLB COMMIT LATE PREFETCHES: 0 MISSED OPPORTUNITY: 0 LATE IN PQ: 0 UNCOVERED: 0
DTLB COMMIT LATE MSHR PREFETCHES: 0
DTLB MPKI TOTAL: 0 MSHR LATE: 0 PQ LATE: 0 COMMIT LATE: 0 MISSED OPPORTUNITY: 0 UNCOVERED: 0
DTLB PREFETCHES SAME FILL-ORIGIN LEVEL: 0 DIFFERENT FILL-ORIGIN LEVEL: 0
DTLB AVERAGE MISS LATENCY: 118.367 cycles
DTLB AVERAGE MISS LATENCY LOAD: -nan cycles
DTLB AVERAGE MISS LATENCY PREFETCH: -nan cycles
DTLB AVERAGE MSHR OCCUPANCY: 0.0910021
DTLB MSHR FULL: 0.00751345
DTLB RQ	ACCESS:   72323764	FORWARD:          0	MERGED:    9884728	TO_CACHE:   62439036

STLB SPEC fills:          0  NON-SPEC fills:          0
STLB Test counter :          0
STLB Leapfrog:          0
STLB MSHR merge:          0
STLB TOTAL     ACCESS:   19850546  HIT:   19734200  MISS:     116346  HIT %:    99.4139  MISS %:    0.58611   MPKI: 0.58173
STLB LOAD TRANSLATION NON_SPEC    ACCESS:     170702  HIT:     116205  MISS:      54497  HIT %:    68.0748  MISS %:    31.9252   MPKI: 0.272485
STLB TRANSLATION FROM L1D PREFETCHER NON_SPEC    ACCESS:   19679844  HIT:   19617995  MISS:      61849  HIT %:    99.6857  MISS %:   0.314276   MPKI: 0.309245
STLB PREFETCH  REQUESTED:          0  ISSUED:          0  USEFUL:      61588  USELESS:        258
STLB USEFUL LOAD PREFETCHES:      61588 PREFETCH ISSUED TO LOWER LEVEL:          0  ACCURACY: inf
STLB TIMELY PREFETCHES:      61588 LATE PREFETCHES: 3933 DROPPED PREFETCHES: 541515
STLB COMMIT LATE PREFETCHES: 0 MISSED OPPORTUNITY: 0 LATE IN PQ: 0 UNCOVERED: 0
STLB COMMIT LATE MSHR PREFETCHES: 0
STLB MPKI TOTAL: 0 MSHR LATE: 0.019665 PQ LATE: 0 COMMIT LATE: 0 MISSED OPPORTUNITY: 0 UNCOVERED: 0
STLB PREFETCHES SAME FILL-ORIGIN LEVEL: 0 DIFFERENT FILL-ORIGIN LEVEL: 0
STLB AVERAGE MISS LATENCY: 227.098 cycles
STLB AVERAGE MISS LATENCY LOAD: -nan cycles
STLB AVERAGE MISS LATENCY PREFETCH: -nan cycles
STLB AVERAGE MSHR OCCUPANCY: 0.133674
STLB MSHR FULL: 0
STLB RQ	ACCESS:   84116615	FORWARD:          0	MERGED:   63678216	TO_CACHE:   20438399

STLB Hit, L1D data hit: 0
STLB Hit, L2C data hit: 0
STLB Hit, LLC data hit: 0
STLB Hit, LLC data miss: 0
STLB STLB hints to L2: 0
L0D SPEC fills:   33272723  NON-SPEC fills:          0
L0D TimeGuard Request with older TS:    2363297 Restricted eviction:    2058501 read:     890659
L0D Test counter :          0
L0D Leapfrog:          0
L0D MSHR merge:    3290600
L0D TOTAL     ACCESS:   56714209  HIT:   14528560  MISS:   42185649  HIT %:    25.6171  MISS %:    74.3829   MPKI: 210.928
L0D LOAD      TOTAL       ACCESS:   56714209  HIT:   14528560  MISS:   42185649  HIT %:    25.6171  MISS %:    74.3829   MPKI: 210.928
L0D LOAD      NON_SPEC    ACCESS:    7110717  HIT:     255195  MISS:    6855522  HIT %:    3.58888  MISS %:    96.4111   MPKI: 34.2776
L0D LOAD      SPEC        ACCESS:   49603492  HIT:   14273365  MISS:   35330127  HIT %:    28.7749  MISS %:    71.2251   MPKI: 176.651
L0D PREFETCH  REQUESTED:          0  ISSUED:          0  USEFUL:          0  USELESS:          0
L0D USEFUL LOAD PREFETCHES:          0 PREFETCH ISSUED TO LOWER LEVEL:          0  ACCURACY: -nan
L0D TIMELY PREFETCHES:          0 LATE PREFETCHES: 0 DROPPED PREFETCHES: 0
L0D COMMIT LATE PREFETCHES: 0 MISSED OPPORTUNITY: 0 LATE IN PQ: 0 UNCOVERED: 0
L0D COMMIT LATE MSHR PREFETCHES: 0
L0D MPKI TOTAL: 227.381 MSHR LATE: 0 PQ LATE: 0 COMMIT LATE: 0 MISSED OPPORTUNITY: 0 UNCOVERED: 0
L0D PREFETCHES SAME FILL-ORIGIN LEVEL: 0 DIFFERENT FILL-ORIGIN LEVEL: 0
L0D AVERAGE MISS LATENCY: 7.0784 cycles
L0D AVERAGE MISS LATENCY LOAD: 7.0784 cycles
L0D AVERAGE MISS LATENCY PREFETCH: -nan cycles
L0D AVERAGE MSHR OCCUPANCY: 1.57395
L0D MSHR FULL: 0.00156132
L0D RQ	ACCESS:   77003511	FORWARD:          0	MERGED:   16998701	TO_CACHE:   60004810
L0D WQ	ACCESS:   12318954	FORWARD:          0	MERGED:          0	TO_CACHE:   12318954

L1D SPEC fills:          0  NON-SPEC fills:      45408
L1D Test counter :     527593
L1D Leapfrog:          0
L1D MSHR merge:     234144
L1D TOTAL     ACCESS:  106987869  HIT:  100466151  MISS:    6521718  HIT %:    93.9042  MISS %:    6.09575   MPKI: 32.6086
L1D LOAD      TOTAL       ACCESS:   42171146  HIT:   41547258  MISS:     623888  HIT %:    98.5206  MISS %:    1.47942   MPKI: 3.11944
L1D LOAD      NON_SPEC    ACCESS:    6854893  HIT:    6809485  MISS:      45408  HIT %:    99.3376  MISS %:   0.662417   MPKI: 0.22704
L1D LOAD      SPEC        ACCESS:   35316253  HIT:   34737773  MISS:     578480  HIT %:     98.362  MISS %:      1.638   MPKI: 2.8924
L1D RFO       NON_SPEC    ACCESS:    6642036  HIT:    5551866  MISS:    1090170  HIT %:    83.5868  MISS %:    16.4132   MPKI: 5.45085
L1D PREFETCH  NON_SPEC    ACCESS:   56916032  HIT:   52629346  MISS:    4286686  HIT %:    92.4684  MISS %:     7.5316   MPKI: 21.4334
L1D COMMIT LOAD NON_SPEC    ACCESS:     662117  HIT:     625067  MISS:      37050  HIT %:    94.4043  MISS %:    5.59569   MPKI: 0.18525
L1D COMMIT WRITE NON_SPEC    ACCESS:     596538  HIT:     112614  MISS:     483924  HIT %:    18.8779  MISS %:    81.1221   MPKI: 2.41962
L1D PREFETCH  REQUESTED:  245024143  ISSUED:  105191150  USEFUL:    3947419  USELESS:     339222
L1D USEFUL LOAD PREFETCHES:    3947419 PREFETCH ISSUED TO LOWER LEVEL:   25354797  ACCURACY: 15.5687
L1D TIMELY PREFETCHES:    3947419 LATE PREFETCHES: 220718 DROPPED PREFETCHES: 1275472
L1D COMMIT LATE PREFETCHES: 0 MISSED OPPORTUNITY: 0 LATE IN PQ: 0 UNCOVERED: 0
L1D COMMIT LATE MSHR PREFETCHES: 0
L1D MPKI TOTAL: 3.19195 MSHR LATE: 1.10359 PQ LATE: 0 COMMIT LATE: 0 MISSED OPPORTUNITY: 0 UNCOVERED: 0
L1D PREFETCHES SAME FILL-ORIGIN LEVEL: 4508308 DIFFERENT FILL-ORIGIN LEVEL: 20846489
L1D AVERAGE MISS LATENCY: 168.025 cycles
L1D AVERAGE MISS LATENCY LOAD: 130.528 cycles
L1D AVERAGE MISS LATENCY PREFETCH: 144.25 cycles
L1D AVERAGE MSHR OCCUPANCY: 5.23839
L1D MSHR FULL: 0.0131296
L1D RQ	ACCESS:   43349749	FORWARD:          0	MERGED:     476681	TO_CACHE:   42861367
L1D WQ	ACCESS:   12916288	FORWARD:      11701	MERGED:      34926	TO_CACHE:   12881362
L1D PQ	ACCESS:  105191150	FORWARD:          0	MERGED:   21245237	TO_CACHE:   83945913

L1D UNIQUE REGIONS ACCESSED: 0
L1D REGIONS CONFLICTS: 0
L1D Cross Page Prefetch Requests: 14701992
L1D Same Page Prefetch Requests: 129126756
L1D ROI Sum of L1D PQ occupancy: 1931807437
L1D PREFETCHES PUSHED FROM L2C: 0
L1I SPEC fills:          0  NON-SPEC fills:          0
L1I Test counter :          0
L1I Leapfrog:          0
L1I MSHR merge:        372
L1I TOTAL     ACCESS:   35409470  HIT:   35408700  MISS:        770  HIT %:    99.9978  MISS %: 0.00217456   MPKI: 0.00385
L1I LOAD      TOTAL       ACCESS:   35409470  HIT:   35408700  MISS:        770  HIT %:    99.9978  MISS %: 0.00217456   MPKI: 0.00385
L1I LOAD      NON_SPEC    ACCESS:   35409470  HIT:   35408700  MISS:        770  HIT %:    99.9978  MISS %: 0.00217456   MPKI: 0.00385
L1I PREFETCH  REQUESTED:          0  ISSUED:          0  USEFUL:          0  USELESS:          0
L1I USEFUL LOAD PREFETCHES:          0 PREFETCH ISSUED TO LOWER LEVEL:          0  ACCURACY: -nan
L1I TIMELY PREFETCHES:          0 LATE PREFETCHES: 0 DROPPED PREFETCHES: 0
L1I COMMIT LATE PREFETCHES: 0 MISSED OPPORTUNITY: 0 LATE IN PQ: 0 UNCOVERED: 0
L1I COMMIT LATE MSHR PREFETCHES: 0
L1I MPKI TOTAL: 0.00571 MSHR LATE: 0 PQ LATE: 0 COMMIT LATE: 0 MISSED OPPORTUNITY: 0 UNCOVERED: 0
L1I PREFETCHES SAME FILL-ORIGIN LEVEL: 0 DIFFERENT FILL-ORIGIN LEVEL: 0
L1I AVERAGE MISS LATENCY: 253.297 cycles
L1I AVERAGE MISS LATENCY LOAD: 253.297 cycles
L1I AVERAGE MISS LATENCY PREFETCH: -nan cycles
L1I AVERAGE MSHR OCCUPANCY: 2.62639e-05
L1I MSHR FULL: 0
L1I RQ	ACCESS:   49944587	FORWARD:          0	MERGED:   14534743	TO_CACHE:   35409844

BTB SPEC fills:          0  NON-SPEC fills:          0
BTB Test counter :          0
BTB Leapfrog:          0
BTB MSHR merge:          0
BTB TOTAL     ACCESS:    7433878  HIT:    7433569  MISS:        309  HIT %:    99.9958  MISS %: 0.00415665   MPKI: 0.001545
BTB BRANCH_DIRECT_JUMP	ACCESS:       1193  HIT:       1166  MISS:         27
BTB BRANCH_INDIRECT	ACCESS:          0  HIT:          0  MISS:          0
BTB BRANCH_CONDITIONAL	ACCESS:    7432411  HIT:    7432254  MISS:        157
BTB BRANCH_DIRECT_CALL	ACCESS:        137  HIT:         76  MISS:         61
BTB BRANCH_INDIRECT_CALL	ACCESS:          0  HIT:          0  MISS:          0
BTB BRANCH_RETURN	ACCESS:        137  HIT:         73  MISS:         64
BTB BRANCH_OTHER ACCESS:          0  HIT:          0  MISS:          0

L2C SPEC fills:          0  NON-SPEC fills:      12781
L2C Test counter :     459348
L2C Leapfrog:          0
L2C MSHR merge:      15292
L2C TOTAL     ACCESS:   25975680  HIT:   20275368  MISS:    5700312  HIT %:    78.0552  MISS %:    21.9448   MPKI: 28.5016
L2C LOAD      TOTAL       ACCESS:     403112  HIT:     283283  MISS:     119829  HIT %:     70.274  MISS %:     29.726   MPKI: 0.599145
L2C LOAD      NON_SPEC    ACCESS:      39099  HIT:      25548  MISS:      13551  HIT %:    65.3418  MISS %:    34.6582   MPKI: 0.067755
L2C LOAD      SPEC        ACCESS:     364013  HIT:     257735  MISS:     106278  HIT %:    70.8038  MISS %:    29.1962   MPKI: 0.53139
L2C RFO       NON_SPEC    ACCESS:    1089394  HIT:       2494  MISS:    1086900  HIT %:   0.228935  MISS %:    99.7711   MPKI: 5.4345
L2C PREFETCH  NON_SPEC    ACCESS:   19216212  HIT:   14840618  MISS:    4375594  HIT %:    77.2297  MISS %:    22.7703   MPKI: 21.878
L2C WRITEBACK NON_SPEC    ACCESS:    1400502  HIT:    1400475  MISS:         27  HIT %:    99.9981  MISS %: 0.00192788   MPKI: 0.000135
L2C CLEAN_EVICTION NON_SPEC    ACCESS:     527582  HIT:     439229  MISS:      88353  HIT %:    83.2532  MISS %:    16.7468   MPKI: 0.441765
L2C COMMIT LOAD NON_SPEC    ACCESS:      35973  HIT:      30728  MISS:       5245  HIT %:    85.4196  MISS %:    14.5804   MPKI: 0.026225
L2C LOAD TRANSLATION NON_SPEC    ACCESS:     267558  HIT:     256462  MISS:      11096  HIT %:    95.8529  MISS %:    4.14714   MPKI: 0.05548
L2C TRANSLATION FROM L1D PREFETCHER NON_SPEC    ACCESS:    3035347  HIT:    3022079  MISS:      13268  HIT %:    99.5629  MISS %:   0.437116   MPKI: 0.06634
L2C PREFETCH  REQUESTED:          0  ISSUED:          0  USEFUL:     197667  USELESS:    4190118
L2C USEFUL LOAD PREFETCHES:     197667 PREFETCH ISSUED TO LOWER LEVEL:    4391303  ACCURACY: 4.50133
L2C TIMELY PREFETCHES:     197667 LATE PREFETCHES: 15704 DROPPED PREFETCHES: 0
L2C COMMIT LATE PREFETCHES: 0 MISSED OPPORTUNITY: 0 LATE IN PQ: 0 UNCOVERED: 0
L2C COMMIT LATE MSHR PREFETCHES: 0
L2C MPKI TOTAL: 0.599145 MSHR LATE: 0.07852 PQ LATE: 0 COMMIT LATE: 0 MISSED OPPORTUNITY: 0 UNCOVERED: 0
L2C PREFETCHES SAME FILL-ORIGIN LEVEL: 2761064 DIFFERENT FILL-ORIGIN LEVEL: 0
L2C AVERAGE MISS LATENCY: 335.04 cycles
L2C AVERAGE MISS LATENCY LOAD: 240.322 cycles
L2C AVERAGE MISS LATENCY PREFETCH: 341.462 cycles
L2C AVERAGE MSHR OCCUPANCY: 8.73901
L2C MSHR FULL: 0.0361011
L2C RQ	ACCESS:    4833295	FORWARD:          0	MERGED:          0	TO_CACHE:    4831388
L2C WQ	ACCESS:    1928124	FORWARD:       2020	MERGED:         40	TO_CACHE:    1928084
L2C PQ	ACCESS:   25286809	FORWARD:          0	MERGED:      18826	TO_CACHE:   25267870

L2C Instructions Evicting Data 770
L2C Translations Evicting Data 24263
L2C Data Evicting Data 5455919
L2C Instructions Evicting Instructions 0
L2C Translations Evicting Instructions 6
L2C Data Evicting Instructions 747
L2C Instructions Evicting Translations 0
L2C Translations Evicting Translations 95
L2C Data Evicting Translations 23854
L2C Dense regions hint from L2: 0
PSCL5 SPEC fills:          0  NON-SPEC fills:          0
PSCL5 Test counter :          0
PSCL5 Leapfrog:          0
PSCL5 MSHR merge:          0
PSCL5 TOTAL     ACCESS:          0  HIT:          0  MISS:          0  HIT %:       -nan  MISS %:       -nan   MPKI: 0
PSCL5 PREFETCH  REQUESTED:          0  ISSUED:          0  USEFUL:          0  USELESS:          0
PSCL5 USEFUL LOAD PREFETCHES:          0 PREFETCH ISSUED TO LOWER LEVEL:          0  ACCURACY: -nan
PSCL5 TIMELY PREFETCHES:          0 LATE PREFETCHES: 0 DROPPED PREFETCHES: 0
PSCL5 COMMIT LATE PREFETCHES: 0 MISSED OPPORTUNITY: 0 LATE IN PQ: 0 UNCOVERED: 0
PSCL5 COMMIT LATE MSHR PREFETCHES: 0
PSCL5 MPKI TOTAL: 0 MSHR LATE: 0 PQ LATE: 0 COMMIT LATE: 0 MISSED OPPORTUNITY: 0 UNCOVERED: 0
PSCL5 PREFETCHES SAME FILL-ORIGIN LEVEL: 0 DIFFERENT FILL-ORIGIN LEVEL: 0

PSCL4 SPEC fills:          0  NON-SPEC fills:          0
PSCL4 Test counter :          0
PSCL4 Leapfrog:          0
PSCL4 MSHR merge:          0
PSCL4 TOTAL     ACCESS:          0  HIT:          0  MISS:          0  HIT %:       -nan  MISS %:       -nan   MPKI: 0
PSCL4 PREFETCH  REQUESTED:          0  ISSUED:          0  USEFUL:          0  USELESS:          0
PSCL4 USEFUL LOAD PREFETCHES:          0 PREFETCH ISSUED TO LOWER LEVEL:          0  ACCURACY: -nan
PSCL4 TIMELY PREFETCHES:          0 LATE PREFETCHES: 0 DROPPED PREFETCHES: 0
PSCL4 COMMIT LATE PREFETCHES: 0 MISSED OPPORTUNITY: 0 LATE IN PQ: 0 UNCOVERED: 0
PSCL4 COMMIT LATE MSHR PREFETCHES: 0
PSCL4 MPKI TOTAL: 0 MSHR LATE: 0 PQ LATE: 0 COMMIT LATE: 0 MISSED OPPORTUNITY: 0 UNCOVERED: 0
PSCL4 PREFETCHES SAME FILL-ORIGIN LEVEL: 0 DIFFERENT FILL-ORIGIN LEVEL: 0

PSCL3 SPEC fills:          0  NON-SPEC fills:          0
PSCL3 Test counter :          0
PSCL3 Leapfrog:          0
PSCL3 MSHR merge:          0
PSCL3 TOTAL     ACCESS:          0  HIT:          0  MISS:          0  HIT %:       -nan  MISS %:       -nan   MPKI: 0
PSCL3 PREFETCH  REQUESTED:          0  ISSUED:          0  USEFUL:          0  USELESS:          0
PSCL3 USEFUL LOAD PREFETCHES:          0 PREFETCH ISSUED TO LOWER LEVEL:          0  ACCURACY: -nan
PSCL3 TIMELY PREFETCHES:          0 LATE PREFETCHES: 0 DROPPED PREFETCHES: 0
PSCL3 COMMIT LATE PREFETCHES: 0 MISSED OPPORTUNITY: 0 LATE IN PQ: 0 UNCOVERED: 0
PSCL3 COMMIT LATE MSHR PREFETCHES: 0
PSCL3 MPKI TOTAL: 0 MSHR LATE: 0 PQ LATE: 0 COMMIT LATE: 0 MISSED OPPORTUNITY: 0 UNCOVERED: 0
PSCL3 PREFETCHES SAME FILL-ORIGIN LEVEL: 0 DIFFERENT FILL-ORIGIN LEVEL: 0

PSCL2 SPEC fills:          0  NON-SPEC fills:          0
PSCL2 Test counter :          0
PSCL2 Leapfrog:          0
PSCL2 MSHR merge:          0
PSCL2 TOTAL     ACCESS:          0  HIT:          0  MISS:          0  HIT %:       -nan  MISS %:       -nan   MPKI: 0
PSCL2 PREFETCH  REQUESTED:          0  ISSUED:          0  USEFUL:          0  USELESS:          0
PSCL2 USEFUL LOAD PREFETCHES:          0 PREFETCH ISSUED TO LOWER LEVEL:          0  ACCURACY: -nan
PSCL2 TIMELY PREFETCHES:          0 LATE PREFETCHES: 0 DROPPED PREFETCHES: 0
PSCL2 COMMIT LATE PREFETCHES: 0 MISSED OPPORTUNITY: 0 LATE IN PQ: 0 UNCOVERED: 0
PSCL2 COMMIT LATE MSHR PREFETCHES: 0
PSCL2 MPKI TOTAL: 0 MSHR LATE: 0 PQ LATE: 0 COMMIT LATE: 0 MISSED OPPORTUNITY: 0 UNCOVERED: 0
PSCL2 PREFETCHES SAME FILL-ORIGIN LEVEL: 0 DIFFERENT FILL-ORIGIN LEVEL: 0

LLC SPEC fills:          0  NON-SPEC fills:      11910
LLC Test counter :     458001
LLC Leapfrog:          0
LLC MSHR merge:          0
LLC TOTAL     ACCESS:    7470738  HIT:    1785890  MISS:    5684848  HIT %:    23.9051  MISS %:    76.0949   MPKI: 28.4242
LLC LOAD      TOTAL       ACCESS:     104537  HIT:        530  MISS:     104007  HIT %:   0.506998  MISS %:     99.493   MPKI: 0.520035
LLC LOAD      NON_SPEC    ACCESS:      12726  HIT:         46  MISS:      12680  HIT %:   0.361465  MISS %:    99.6385   MPKI: 0.0634
LLC LOAD      SPEC        ACCESS:      91811  HIT:        484  MISS:      91327  HIT %:    0.52717  MISS %:    99.4728   MPKI: 0.456635
LLC RFO       NON_SPEC    ACCESS:    1086554  HIT:          9  MISS:    1086545  HIT %: 0.000828307  MISS %:    99.9992   MPKI: 5.43272
LLC PREFETCH  NON_SPEC    ACCESS:    4391298  HIT:       2657  MISS:    4388641  HIT %:   0.060506  MISS %:    99.9395   MPKI: 21.9432
LLC WRITEBACK NON_SPEC    ACCESS:    1399458  HIT:    1399417  MISS:         41  HIT %:    99.9971  MISS %: 0.00292971   MPKI: 0.000205
LLC CLEAN_EVICTION NON_SPEC    ACCESS:     459348  HIT:     383082  MISS:      76266  HIT %:    83.3969  MISS %:    16.6031   MPKI: 0.38133
LLC COMMIT LOAD NON_SPEC    ACCESS:       5179  HIT:        190  MISS:       4989  HIT %:    3.66866  MISS %:    96.3313   MPKI: 0.024945
LLC LOAD TRANSLATION NON_SPEC    ACCESS:      11096  HIT:          3  MISS:      11093  HIT %:  0.0270368  MISS %:     99.973   MPKI: 0.055465
LLC TRANSLATION FROM L1D PREFETCHER NON_SPEC    ACCESS:      13268  HIT:          2  MISS:      13266  HIT %:  0.0150739  MISS %:    99.9849   MPKI: 0.06633
LLC PREFETCH  REQUESTED:          0  ISSUED:          0  USEFUL:        466  USELESS:    4395852
LLC USEFUL LOAD PREFETCHES:        466 PREFETCH ISSUED TO LOWER LEVEL:    4388646  ACCURACY: 0.0106183
LLC TIMELY PREFETCHES:        466 LATE PREFETCHES: 0 DROPPED PREFETCHES: 0
LLC COMMIT LATE PREFETCHES: 0 MISSED OPPORTUNITY: 0 LATE IN PQ: 0 UNCOVERED: 0
LLC COMMIT LATE MSHR PREFETCHES: 0
LLC MPKI TOTAL: 0.520035 MSHR LATE: 0 PQ LATE: 0 COMMIT LATE: 0 MISSED OPPORTUNITY: 0 UNCOVERED: 0
LLC PREFETCHES SAME FILL-ORIGIN LEVEL: 0 DIFFERENT FILL-ORIGIN LEVEL: 0
LLC AVERAGE MISS LATENCY: 306.646 cycles
LLC AVERAGE MISS LATENCY LOAD: 221.491 cycles
LLC AVERAGE MISS LATENCY PREFETCH: 311.533 cycles
LLC AVERAGE MSHR OCCUPANCY: 7.75564
LLC MSHR FULL: 0
LLC RQ	ACCESS:    1220638	FORWARD:          0	MERGED:          0	TO_CACHE:    1220638
LLC WQ	ACCESS:    1858806	FORWARD:          0	MERGED:          0	TO_CACHE:    1858806
LLC PQ	ACCESS:    4391303	FORWARD:          0	MERGED:          0	TO_CACHE:    4391303

LLC Dense regions hint to LLC: 0

RAW hits: 1399586
Loads Generated: 78403104
Loads sent to L1D: 77003511
Stores Generated: 12318967
Stores sent to L1D: 12318954
Major fault: 0 Minor fault: 55185
Allocated PAGES: 55185
Total Load insts: 110000190
Total Non-spec loads: 8151482
Percentage of speculative loads: 92.5896

LeapFrogging counter: 66406
Commit hits: 31442245 miss: 38110788
Commit hit %: 45.2061 miss %: 54.7939
Commits not translated: 0
Loads retired: 623888
Stores retired: 12318954
Cache fills: 623888
L1D response latency: 130.528 cycles
Load retirement latency: 243.968 cycles
OOO test counter: 0
Discarded buffer inserts: 31442245 hits: 17662 hit %: 0.0561728
Filter prediction accuracy: 99.9282
ALL MISSES SIZE: 20940
LATENCY_FILL: 127.249 637175
LATENCY_FILL_ROB: 200.213 636391
test counter pref: 4828376
Max ROB Extended: 24

DRAM Statistics
 CHANNEL 0
 RQ ROW_BUFFER_HIT:     989298  ROW_BUFFER_MISS:    4619241
 DBUS_CONGESTED:       1289
 WQ ROW_BUFFER_HIT:     295359  ROW_BUFFER_MISS:    1566705  FULL:          0

 AVG_CONGESTED_CYCLE: 5
 All warmup complete: 2
Channel 0 Bank busy for read cycles: 0
Channel 0 Bank busy for write cycles: 0
Channel 0
Rank 0
0banks busy for read cycles: 6749392
0banks busy for write cycles: 22089
1banks busy for read cycles: 20162008
1banks busy for write cycles: 3064303
2banks busy for read cycles: 28101882
2banks busy for write cycles: 1202536
3banks busy for read cycles: 30233114
3banks busy for write cycles: 465299
4banks busy for read cycles: 27111265
4banks busy for write cycles: 382631
5banks busy for read cycles: 22224690
5banks busy for write cycles: 366726
6banks busy for read cycles: 19337644
6banks busy for write cycles: 433285
7banks busy for read cycles: 17563855
7banks busy for write cycles: 2909646
8banks busy for read cycles: 19790223
8banks busy for write cycles: 39840794

CPU 0 Branch Prediction Accuracy: 99.7722% MPKI: 0.08495 Average ROB Occupancy at Mispredict: 84.7765
Branch types
NOT_BRANCH: 192541227 96.2706%
BRANCH_DIRECT_JUMP: 1193 0.0005965%
BRANCH_INDIRECT: 0 0%
BRANCH_CONDITIONAL: 7457357 3.72868%
BRANCH_DIRECT_CALL: 137 6.85e-05%
BRANCH_INDIRECT_CALL: 0 0%
BRANCH_RETURN: 137 6.85e-05%
BRANCH_OTHER: 0 0%

DRAM PAGES: 1048576
Allocated PAGES: 55185
