
*** ChampSim Multicore Out-of-Order Simulator ***

Warmup Instructions: 50000000
Simulation Instructions: 200000000
Number of CPUs: 1
LLC sets: 2048
LLC ways: 16
L0D sets: 16
L0D ways: 2
ROB size: 352
LQ size: 128
SQ size: 72
Secure Berti: ON
Berti: ON
Berti Fill: ON
On commit prefetching: OFF
Hit-based filter: ON
Time-guarding: ON
Free-slotting: ON
Leap-frogging: ON
Train prefetcher on L0D bypass: OFF
No translation penalty for prefetchers: OFF
Prefetch to L0D only: OFF
Prefetch to L1D only: OFF
Clean evictions: ON
Commit loads: ON
Commit write: ON
Fill commit loads to L2C, LLC: ON
DRAM IO FREQUENCY: 6400
ROB SIZE: 352
Off-chip DRAM Size: 4096 MB Channels: 1 Width: 64-bit Data Rate: 6400 MT/s
CPU 0 runs /home/sumon/secure_berti/GhostMinion/../../traces/spec/654.roms_s-1613B.champsimtrace.xz
.xz
BTB has LRU replacement policy
ITLB has LRU replacement policy
DTLB has LRU replacement policy
STLB has LRU replacement policy
L1I has LRU replacement policy
L0D has LRU replacement policy
Berti version on_commit
History Sets: 8
History Ways: 16
BERTI Size: 16
BERTI Stride Size: 16
L1D has LRU replacement policy
L2C has LRU replacement policy
LLC has LRU replacement policy
Heartbeat CPU 0 instructions: 10000001 cycles: 4745953 heartbeat IPC: 2.10706 cumulative IPC: 2.10706 (Simulation time: 0 hr 0 min 33 sec) 
Heartbeat CPU 0 instructions: 20000003 cycles: 9491933 heartbeat IPC: 2.10705 cumulative IPC: 2.10705 (Simulation time: 0 hr 1 min 6 sec) 
Heartbeat CPU 0 instructions: 30000000 cycles: 14237936 heartbeat IPC: 2.10704 cumulative IPC: 2.10705 (Simulation time: 0 hr 1 min 39 sec) 
Heartbeat CPU 0 instructions: 40000002 cycles: 18982958 heartbeat IPC: 2.10747 cumulative IPC: 2.10715 (Simulation time: 0 hr 2 min 11 sec) 
Heartbeat CPU 0 instructions: 50000003 cycles: 25132731 heartbeat IPC: 1.62608 cumulative IPC: 1.98944 (Simulation time: 0 hr 2 min 52 sec) 

Warmup complete CPU 0 instructions: 50000003 cycles: 25132731 (Simulation time: 0 hr 2 min 52 sec) 

Heartbeat CPU 0 instructions: 60000001 cycles: 40750081 heartbeat IPC: 0.640313 cumulative IPC: 0.640313 (Simulation time: 0 hr 3 min 28 sec) 
Heartbeat CPU 0 instructions: 70000003 cycles: 56364768 heartbeat IPC: 0.640423 cumulative IPC: 0.640368 (Simulation time: 0 hr 4 min 6 sec) 
Heartbeat CPU 0 instructions: 80000000 cycles: 71968864 heartbeat IPC: 0.640857 cumulative IPC: 0.640531 (Simulation time: 0 hr 4 min 44 sec) 
Heartbeat CPU 0 instructions: 90000001 cycles: 87566944 heartbeat IPC: 0.641105 cumulative IPC: 0.640674 (Simulation time: 0 hr 5 min 23 sec) 
Heartbeat CPU 0 instructions: 100000000 cycles: 103167749 heartbeat IPC: 0.640993 cumulative IPC: 0.640738 (Simulation time: 0 hr 6 min 2 sec) 
Heartbeat CPU 0 instructions: 110000000 cycles: 118767836 heartbeat IPC: 0.641022 cumulative IPC: 0.640785 (Simulation time: 0 hr 6 min 41 sec) 
Heartbeat CPU 0 instructions: 120000001 cycles: 138300597 heartbeat IPC: 0.51196 cumulative IPC: 0.61855 (Simulation time: 0 hr 7 min 35 sec) 
Heartbeat CPU 0 instructions: 130000000 cycles: 153893379 heartbeat IPC: 0.641322 cumulative IPC: 0.621308 (Simulation time: 0 hr 8 min 14 sec) 
Heartbeat CPU 0 instructions: 140000003 cycles: 169493940 heartbeat IPC: 0.641003 cumulative IPC: 0.623436 (Simulation time: 0 hr 8 min 53 sec) 
Heartbeat CPU 0 instructions: 150000001 cycles: 185094351 heartbeat IPC: 0.641009 cumulative IPC: 0.62515 (Simulation time: 0 hr 9 min 32 sec) 
Heartbeat CPU 0 instructions: 160000001 cycles: 200692247 heartbeat IPC: 0.641112 cumulative IPC: 0.626568 (Simulation time: 0 hr 10 min 12 sec) 
Heartbeat CPU 0 instructions: 170000002 cycles: 216291261 heartbeat IPC: 0.641066 cumulative IPC: 0.627751 (Simulation time: 0 hr 10 min 51 sec) 
Heartbeat CPU 0 instructions: 180000000 cycles: 231890953 heartbeat IPC: 0.641038 cumulative IPC: 0.628754 (Simulation time: 0 hr 11 min 31 sec) 
Heartbeat CPU 0 instructions: 190000000 cycles: 247491201 heartbeat IPC: 0.641015 cumulative IPC: 0.629614 (Simulation time: 0 hr 12 min 11 sec) 
Heartbeat CPU 0 instructions: 200000003 cycles: 267061425 heartbeat IPC: 0.51098 cumulative IPC: 0.620017 (Simulation time: 0 hr 13 min 4 sec) 
Heartbeat CPU 0 instructions: 210000001 cycles: 282662703 heartbeat IPC: 0.640973 cumulative IPC: 0.621287 (Simulation time: 0 hr 13 min 42 sec) 
Heartbeat CPU 0 instructions: 220000000 cycles: 298262154 heartbeat IPC: 0.641048 cumulative IPC: 0.622416 (Simulation time: 0 hr 14 min 20 sec) 
Heartbeat CPU 0 instructions: 230000003 cycles: 313862038 heartbeat IPC: 0.641031 cumulative IPC: 0.623421 (Simulation time: 0 hr 14 min 59 sec) 
Heartbeat CPU 0 instructions: 240000003 cycles: 329459131 heartbeat IPC: 0.641145 cumulative IPC: 0.62433 (Simulation time: 0 hr 15 min 35 sec) 
Heartbeat CPU 0 instructions: 250000000 cycles: 345058389 heartbeat IPC: 0.641056 cumulative IPC: 0.625145 (Simulation time: 0 hr 16 min 14 sec) 
Finished CPU 0 instructions: 200000000 cycles: 319925688 cumulative IPC: 0.625145 (Simulation time: 0 hr 16 min 14 sec) 
 Instruction ID: 250000065

ChampSim completed all CPUs

Region of Interest Statistics

CPU 0 cumulative IPC: 0.625145 instructions: 200000000 cycles: 319925688
ITLB SPEC fills:          0  NON-SPEC fills:          0
ITLB Test counter :          0
ITLB Leapfrog:          0
ITLB MSHR merge:          0
ITLB TOTAL     ACCESS:   30440787  HIT:   30440779  MISS:          8  HIT %:        100  MISS %: 2.62805e-05   MPKI: 4e-05
ITLB LOAD TRANSLATION NON_SPEC    ACCESS:   30440787  HIT:   30440779  MISS:          8  HIT %:        100  MISS %: 2.62805e-05   MPKI: 4e-05
ITLB PREFETCH  REQUESTED:          0  ISSUED:          0  USEFUL:          0  USELESS:          0
ITLB USEFUL LOAD PREFETCHES:          0 PREFETCH ISSUED TO LOWER LEVEL:          0  ACCURACY: -nan
ITLB TIMELY PREFETCHES:          0 LATE PREFETCHES: 0 DROPPED PREFETCHES: 0
ITLB COMMIT LATE PREFETCHES: 0 MISSED OPPORTUNITY: 0 LATE IN PQ: 0 UNCOVERED: 0
ITLB COMMIT LATE MSHR PREFETCHES: 0
ITLB MPKI TOTAL: 0 MSHR LATE: 0 PQ LATE: 0 COMMIT LATE: 0 MISSED OPPORTUNITY: 0 UNCOVERED: 0
ITLB PREFETCHES SAME FILL-ORIGIN LEVEL: 0 DIFFERENT FILL-ORIGIN LEVEL: 0
ITLB AVERAGE MISS LATENCY: 319.375 cycles
ITLB AVERAGE MISS LATENCY LOAD: -nan cycles
ITLB AVERAGE MISS LATENCY PREFETCH: -nan cycles
ITLB AVERAGE MSHR OCCUPANCY: 0
ITLB MSHR FULL: 0
ITLB RQ	ACCESS:   39701515	FORWARD:          0	MERGED:    9260728	TO_CACHE:   30440787

DTLB SPEC fills:          0  NON-SPEC fills:          0
DTLB Test counter :          0
DTLB Leapfrog:          0
DTLB MSHR merge:          0
DTLB TOTAL     ACCESS:   44582575  HIT:   44570377  MISS:      12198  HIT %:    99.9726  MISS %:  0.0273605   MPKI: 0.06099
DTLB LOAD TRANSLATION NON_SPEC    ACCESS:   44582575  HIT:   44570377  MISS:      12198  HIT %:    99.9726  MISS %:  0.0273605   MPKI: 0.06099
DTLB PREFETCH  REQUESTED:          0  ISSUED:          0  USEFUL:          0  USELESS:          0
DTLB USEFUL LOAD PREFETCHES:          0 PREFETCH ISSUED TO LOWER LEVEL:          0  ACCURACY: -nan
DTLB TIMELY PREFETCHES:          0 LATE PREFETCHES: 0 DROPPED PREFETCHES: 0
DTLB COMMIT LATE PREFETCHES: 0 MISSED OPPORTUNITY: 0 LATE IN PQ: 0 UNCOVERED: 0
DTLB COMMIT LATE MSHR PREFETCHES: 0
DTLB MPKI TOTAL: 0 MSHR LATE: 0 PQ LATE: 0 COMMIT LATE: 0 MISSED OPPORTUNITY: 0 UNCOVERED: 0
DTLB PREFETCHES SAME FILL-ORIGIN LEVEL: 0 DIFFERENT FILL-ORIGIN LEVEL: 0
DTLB AVERAGE MISS LATENCY: 110.162 cycles
DTLB AVERAGE MISS LATENCY LOAD: -nan cycles
DTLB AVERAGE MISS LATENCY PREFETCH: -nan cycles
DTLB AVERAGE MSHR OCCUPANCY: 0.00200613
DTLB MSHR FULL: 0
DTLB RQ	ACCESS:   53849405	FORWARD:          0	MERGED:    9243596	TO_CACHE:   44605809

STLB SPEC fills:          0  NON-SPEC fills:          0
STLB Test counter :          0
STLB Leapfrog:          0
STLB MSHR merge:          0
STLB TOTAL     ACCESS:    5007992  HIT:    4996631  MISS:      11361  HIT %:    99.7731  MISS %:   0.226857   MPKI: 0.056805
STLB LOAD TRANSLATION NON_SPEC    ACCESS:      12206  HIT:       5147  MISS:       7059  HIT %:    42.1678  MISS %:    57.8322   MPKI: 0.035295
STLB TRANSLATION FROM L1D PREFETCHER NON_SPEC    ACCESS:    4995786  HIT:    4991484  MISS:       4302  HIT %:    99.9139  MISS %:  0.0861126   MPKI: 0.02151
STLB PREFETCH  REQUESTED:          0  ISSUED:          0  USEFUL:       4301  USELESS:          1
STLB USEFUL LOAD PREFETCHES:       4301 PREFETCH ISSUED TO LOWER LEVEL:          0  ACCURACY: inf
STLB TIMELY PREFETCHES:       4301 LATE PREFETCHES: 1381 DROPPED PREFETCHES: 63026
STLB COMMIT LATE PREFETCHES: 0 MISSED OPPORTUNITY: 0 LATE IN PQ: 0 UNCOVERED: 0
STLB COMMIT LATE MSHR PREFETCHES: 0
STLB MPKI TOTAL: 0 MSHR LATE: 0.006905 PQ LATE: 0 COMMIT LATE: 0 MISSED OPPORTUNITY: 0 UNCOVERED: 0
STLB PREFETCHES SAME FILL-ORIGIN LEVEL: 0 DIFFERENT FILL-ORIGIN LEVEL: 0
STLB AVERAGE MISS LATENCY: 151.48 cycles
STLB AVERAGE MISS LATENCY LOAD: -nan cycles
STLB AVERAGE MISS LATENCY PREFETCH: -nan cycles
STLB AVERAGE MSHR OCCUPANCY: 0.040387
STLB MSHR FULL: 0
STLB RQ	ACCESS:   22111348	FORWARD:          0	MERGED:   17020724	TO_CACHE:    5090624

STLB Hit, L1D data hit: 0
STLB Hit, L2C data hit: 0
STLB Hit, LLC data hit: 0
STLB Hit, LLC data miss: 0
STLB STLB hints to L2: 0
L0D SPEC fills:   16430596  NON-SPEC fills:          0
L0D TimeGuard Request with older TS:       7461 Restricted eviction:         93 read:     866068
L0D Test counter :          0
L0D Leapfrog:          0
L0D MSHR merge:     243417
L0D TOTAL     ACCESS:   31893620  HIT:    2010263  MISS:   29883357  HIT %:    6.30303  MISS %:     93.697   MPKI: 149.417
L0D LOAD      TOTAL       ACCESS:   31893620  HIT:    2010263  MISS:   29883357  HIT %:    6.30303  MISS %:     93.697   MPKI: 149.417
L0D LOAD      NON_SPEC    ACCESS:   13462115  HIT:       9447  MISS:   13452668  HIT %:  0.0701747  MISS %:    99.9298   MPKI: 67.2633
L0D LOAD      SPEC        ACCESS:   18431505  HIT:    2000816  MISS:   16430689  HIT %:    10.8554  MISS %:    89.1446   MPKI: 82.1534
L0D PREFETCH  REQUESTED:          0  ISSUED:          0  USEFUL:          0  USELESS:          0
L0D USEFUL LOAD PREFETCHES:          0 PREFETCH ISSUED TO LOWER LEVEL:          0  ACCURACY: -nan
L0D TIMELY PREFETCHES:          0 LATE PREFETCHES: 0 DROPPED PREFETCHES: 0
L0D COMMIT LATE PREFETCHES: 0 MISSED OPPORTUNITY: 0 LATE IN PQ: 0 UNCOVERED: 0
L0D COMMIT LATE MSHR PREFETCHES: 0
L0D MPKI TOTAL: 150.634 MSHR LATE: 0 PQ LATE: 0 COMMIT LATE: 0 MISSED OPPORTUNITY: 0 UNCOVERED: 0
L0D PREFETCHES SAME FILL-ORIGIN LEVEL: 0 DIFFERENT FILL-ORIGIN LEVEL: 0
L0D AVERAGE MISS LATENCY: 5.4023 cycles
L0D AVERAGE MISS LATENCY LOAD: 5.4023 cycles
L0D AVERAGE MISS LATENCY PREFETCH: -nan cycles
L0D AVERAGE MSHR OCCUPANCY: 0.544065
L0D MSHR FULL: 0
L0D RQ	ACCESS:   40096878	FORWARD:          0	MERGED:    7959846	TO_CACHE:   32137032
L0D WQ	ACCESS:   21712373	FORWARD:          0	MERGED:          0	TO_CACHE:   21712373

L1D SPEC fills:          0  NON-SPEC fills:       6404
L1D Test counter :      35537
L1D Leapfrog:          0
L1D MSHR merge:      22487
L1D TOTAL     ACCESS:   68397051  HIT:   67782330  MISS:     614721  HIT %:    99.1012  MISS %:   0.898754   MPKI: 3.07361
L1D LOAD      TOTAL       ACCESS:   29883341  HIT:   29840869  MISS:      42472  HIT %:    99.8579  MISS %:   0.142126   MPKI: 0.21236
L1D LOAD      NON_SPEC    ACCESS:   13452664  HIT:   13446260  MISS:       6404  HIT %:    99.9524  MISS %:   0.047604   MPKI: 0.03202
L1D LOAD      SPEC        ACCESS:   16430677  HIT:   16394609  MISS:      36068  HIT %:    99.7805  MISS %:   0.219516   MPKI: 0.18034
L1D RFO       NON_SPEC    ACCESS:   19826457  HIT:   19665924  MISS:     160533  HIT %:    99.1903  MISS %:   0.809691   MPKI: 0.802665
L1D PREFETCH  NON_SPEC    ACCESS:   18564900  HIT:   18184784  MISS:     380116  HIT %:    97.9525  MISS %:     2.0475   MPKI: 1.90058
L1D COMMIT LOAD NON_SPEC    ACCESS:      83270  HIT:      83187  MISS:         83  HIT %:    99.9003  MISS %:  0.0996758   MPKI: 0.000415
L1D COMMIT WRITE NON_SPEC    ACCESS:      39083  HIT:       7566  MISS:      31517  HIT %:    19.3588  MISS %:    80.6412   MPKI: 0.157585
L1D PREFETCH  REQUESTED:   33933588  ISSUED:   26373174  USEFUL:     299926  USELESS:      80190
L1D USEFUL LOAD PREFETCHES:     299926 PREFETCH ISSUED TO LOWER LEVEL:    3303407  ACCURACY: 9.07929
L1D TIMELY PREFETCHES:     299926 LATE PREFETCHES: 22484 DROPPED PREFETCHES: 152471
L1D COMMIT LATE PREFETCHES: 0 MISSED OPPORTUNITY: 0 LATE IN PQ: 0 UNCOVERED: 0
L1D COMMIT LATE MSHR PREFETCHES: 0
L1D MPKI TOTAL: 0.212435 MSHR LATE: 0.11242 PQ LATE: 0 COMMIT LATE: 0 MISSED OPPORTUNITY: 0 UNCOVERED: 0
L1D PREFETCHES SAME FILL-ORIGIN LEVEL: 405982 DIFFERENT FILL-ORIGIN LEVEL: 2897425
L1D AVERAGE MISS LATENCY: 134.448 cycles
L1D AVERAGE MISS LATENCY LOAD: 182.443 cycles
L1D AVERAGE MISS LATENCY PREFETCH: 75.4812 cycles
L1D AVERAGE MSHR OCCUPANCY: 0.207159
L1D MSHR FULL: 0.000991937
L1D RQ	ACCESS:   30071731	FORWARD:          0	MERGED:     105045	TO_CACHE:   29966672
L1D WQ	ACCESS:   21751457	FORWARD:         14	MERGED:    1412287	TO_CACHE:   20339170
L1D PQ	ACCESS:   26373174	FORWARD:          0	MERGED:    4274032	TO_CACHE:   22099142

L1D UNIQUE REGIONS ACCESSED: 0
L1D REGIONS CONFLICTS: 0
L1D Cross Page Prefetch Requests: 3325428
L1D Same Page Prefetch Requests: 33196095
L1D ROI Sum of L1D PQ occupancy: 395919922
L1D PREFETCHES PUSHED FROM L2C: 0
L1I SPEC fills:          0  NON-SPEC fills:          0
L1I Test counter :          0
L1I Leapfrog:          0
L1I MSHR merge:         15
L1I TOTAL     ACCESS:   39701498  HIT:   39701392  MISS:        106  HIT %:    99.9997  MISS %: 0.000266992   MPKI: 0.00053
L1I LOAD      TOTAL       ACCESS:   39701498  HIT:   39701392  MISS:        106  HIT %:    99.9997  MISS %: 0.000266992   MPKI: 0.00053
L1I LOAD      NON_SPEC    ACCESS:   39701498  HIT:   39701392  MISS:        106  HIT %:    99.9997  MISS %: 0.000266992   MPKI: 0.00053
L1I PREFETCH  REQUESTED:          0  ISSUED:          0  USEFUL:          0  USELESS:          0
L1I USEFUL LOAD PREFETCHES:          0 PREFETCH ISSUED TO LOWER LEVEL:          0  ACCURACY: -nan
L1I TIMELY PREFETCHES:          0 LATE PREFETCHES: 0 DROPPED PREFETCHES: 0
L1I COMMIT LATE PREFETCHES: 0 MISSED OPPORTUNITY: 0 LATE IN PQ: 0 UNCOVERED: 0
L1I COMMIT LATE MSHR PREFETCHES: 0
L1I MPKI TOTAL: 0.000605 MSHR LATE: 0 PQ LATE: 0 COMMIT LATE: 0 MISSED OPPORTUNITY: 0 UNCOVERED: 0
L1I PREFETCHES SAME FILL-ORIGIN LEVEL: 0 DIFFERENT FILL-ORIGIN LEVEL: 0
L1I AVERAGE MISS LATENCY: 166.925 cycles
L1I AVERAGE MISS LATENCY LOAD: 166.925 cycles
L1I AVERAGE MISS LATENCY PREFETCH: -nan cycles
L1I AVERAGE MSHR OCCUPANCY: 1.51128e-06
L1I MSHR FULL: 0
L1I RQ	ACCESS:   57865971	FORWARD:          0	MERGED:   18164456	TO_CACHE:   39701515

BTB SPEC fills:          0  NON-SPEC fills:          0
BTB Test counter :          0
BTB Leapfrog:          0
BTB MSHR merge:          0
BTB TOTAL     ACCESS:   13350901  HIT:   11926181  MISS:    1424720  HIT %:    89.3287  MISS %:    10.6713   MPKI: 7.1236
BTB BRANCH_DIRECT_JUMP	ACCESS:    1424895  HIT:    1424857  MISS:         38
BTB BRANCH_INDIRECT	ACCESS:         16  HIT:         15  MISS:          1
BTB BRANCH_CONDITIONAL	ACCESS:    6226070  HIT:    6225943  MISS:        127
BTB BRANCH_DIRECT_CALL	ACCESS:    2849960  HIT:    2849915  MISS:         45
BTB BRANCH_INDIRECT_CALL	ACCESS:          0  HIT:          0  MISS:          0
BTB BRANCH_RETURN	ACCESS:    2849960  HIT:    1425451  MISS:    1424509
BTB BRANCH_OTHER ACCESS:          0  HIT:          0  MISS:          0

L2C SPEC fills:          0  NON-SPEC fills:       2654
L2C Test counter :      34318
L2C Leapfrog:          0
L2C MSHR merge:       2173
L2C TOTAL     ACCESS:    3250935  HIT:    2631961  MISS:     618974  HIT %:    80.9601  MISS %:    19.0399   MPKI: 3.09487
L2C LOAD      TOTAL       ACCESS:      20105  HIT:      10016  MISS:      10089  HIT %:    49.8185  MISS %:    50.1815   MPKI: 0.050445
L2C LOAD      NON_SPEC    ACCESS:       4465  HIT:       1705  MISS:       2760  HIT %:    38.1859  MISS %:    61.8141   MPKI: 0.0138
L2C LOAD      SPEC        ACCESS:      15640  HIT:       8311  MISS:       7329  HIT %:    53.1394  MISS %:    46.8606   MPKI: 0.036645
L2C RFO       NON_SPEC    ACCESS:     157151  HIT:          0  MISS:     157151  HIT %:          0  MISS %:        100   MPKI: 0.785755
L2C PREFETCH  NON_SPEC    ACCESS:    2436347  HIT:    1991149  MISS:     445198  HIT %:    81.7268  MISS %:    18.2732   MPKI: 2.22599
L2C WRITEBACK NON_SPEC    ACCESS:     223125  HIT:     222726  MISS:        399  HIT %:    99.8212  MISS %:   0.178824   MPKI: 0.001995
L2C CLEAN_EVICTION NON_SPEC    ACCESS:      35536  HIT:      31549  MISS:       3987  HIT %:    88.7804  MISS %:    11.2196   MPKI: 0.019935
L2C COMMIT LOAD NON_SPEC    ACCESS:         71  HIT:         65  MISS:          6  HIT %:    91.5493  MISS %:     8.4507   MPKI: 3e-05
L2C LOAD TRANSLATION NON_SPEC    ACCESS:      35234  HIT:      34315  MISS:        919  HIT %:    97.3917  MISS %:    2.60828   MPKI: 0.004595
L2C TRANSLATION FROM L1D PREFETCHER NON_SPEC    ACCESS:     343366  HIT:     342141  MISS:       1225  HIT %:    99.6432  MISS %:   0.356762   MPKI: 0.006125
L2C PREFETCH  REQUESTED:          0  ISSUED:          0  USEFUL:       9315  USELESS:     436907
L2C USEFUL LOAD PREFETCHES:       9315 PREFETCH ISSUED TO LOWER LEVEL:     447372  ACCURACY: 2.08216
L2C TIMELY PREFETCHES:       9315 LATE PREFETCHES: 2174 DROPPED PREFETCHES: 0
L2C COMMIT LATE PREFETCHES: 0 MISSED OPPORTUNITY: 0 LATE IN PQ: 0 UNCOVERED: 0
L2C COMMIT LATE MSHR PREFETCHES: 0
L2C MPKI TOTAL: 0.050445 MSHR LATE: 0.01087 PQ LATE: 0 COMMIT LATE: 0 MISSED OPPORTUNITY: 0 UNCOVERED: 0
L2C PREFETCHES SAME FILL-ORIGIN LEVEL: 367373 DIFFERENT FILL-ORIGIN LEVEL: 0
L2C AVERAGE MISS LATENCY: 279.495 cycles
L2C AVERAGE MISS LATENCY LOAD: 262.322 cycles
L2C AVERAGE MISS LATENCY PREFETCH: 282.656 cycles
L2C AVERAGE MSHR OCCUPANCY: 5.82178
L2C MSHR FULL: 0.0447526
L2C RQ	ACCESS:     555928	FORWARD:          0	MERGED:          0	TO_CACHE:     555927
L2C WQ	ACCESS:     258662	FORWARD:          1	MERGED:          1	TO_CACHE:     258661
L2C PQ	ACCESS:    3299617	FORWARD:          0	MERGED:       3640	TO_CACHE:    3295977

L2C Instructions Evicting Data 106
L2C Translations Evicting Data 2137
L2C Data Evicting Data 602736
L2C Instructions Evicting Instructions 0
L2C Translations Evicting Instructions 0
L2C Data Evicting Instructions 145
L2C Instructions Evicting Translations 0
L2C Translations Evicting Translations 7
L2C Data Evicting Translations 2128
L2C Dense regions hint from L2: 0
PSCL5 SPEC fills:          0  NON-SPEC fills:          0
PSCL5 Test counter :          0
PSCL5 Leapfrog:          0
PSCL5 MSHR merge:          0
PSCL5 TOTAL     ACCESS:          0  HIT:          0  MISS:          0  HIT %:       -nan  MISS %:       -nan   MPKI: 0
PSCL5 PREFETCH  REQUESTED:          0  ISSUED:          0  USEFUL:          0  USELESS:          0
PSCL5 USEFUL LOAD PREFETCHES:          0 PREFETCH ISSUED TO LOWER LEVEL:          0  ACCURACY: -nan
PSCL5 TIMELY PREFETCHES:          0 LATE PREFETCHES: 0 DROPPED PREFETCHES: 0
PSCL5 COMMIT LATE PREFETCHES: 0 MISSED OPPORTUNITY: 0 LATE IN PQ: 0 UNCOVERED: 0
PSCL5 COMMIT LATE MSHR PREFETCHES: 0
PSCL5 MPKI TOTAL: 0 MSHR LATE: 0 PQ LATE: 0 COMMIT LATE: 0 MISSED OPPORTUNITY: 0 UNCOVERED: 0
PSCL5 PREFETCHES SAME FILL-ORIGIN LEVEL: 0 DIFFERENT FILL-ORIGIN LEVEL: 0

PSCL4 SPEC fills:          0  NON-SPEC fills:          0
PSCL4 Test counter :          0
PSCL4 Leapfrog:          0
PSCL4 MSHR merge:          0
PSCL4 TOTAL     ACCESS:          0  HIT:          0  MISS:          0  HIT %:       -nan  MISS %:       -nan   MPKI: 0
PSCL4 PREFETCH  REQUESTED:          0  ISSUED:          0  USEFUL:          0  USELESS:          0
PSCL4 USEFUL LOAD PREFETCHES:          0 PREFETCH ISSUED TO LOWER LEVEL:          0  ACCURACY: -nan
PSCL4 TIMELY PREFETCHES:          0 LATE PREFETCHES: 0 DROPPED PREFETCHES: 0
PSCL4 COMMIT LATE PREFETCHES: 0 MISSED OPPORTUNITY: 0 LATE IN PQ: 0 UNCOVERED: 0
PSCL4 COMMIT LATE MSHR PREFETCHES: 0
PSCL4 MPKI TOTAL: 0 MSHR LATE: 0 PQ LATE: 0 COMMIT LATE: 0 MISSED OPPORTUNITY: 0 UNCOVERED: 0
PSCL4 PREFETCHES SAME FILL-ORIGIN LEVEL: 0 DIFFERENT FILL-ORIGIN LEVEL: 0

PSCL3 SPEC fills:          0  NON-SPEC fills:          0
PSCL3 Test counter :          0
PSCL3 Leapfrog:          0
PSCL3 MSHR merge:          0
PSCL3 TOTAL     ACCESS:          0  HIT:          0  MISS:          0  HIT %:       -nan  MISS %:       -nan   MPKI: 0
PSCL3 PREFETCH  REQUESTED:          0  ISSUED:          0  USEFUL:          0  USELESS:          0
PSCL3 USEFUL LOAD PREFETCHES:          0 PREFETCH ISSUED TO LOWER LEVEL:          0  ACCURACY: -nan
PSCL3 TIMELY PREFETCHES:          0 LATE PREFETCHES: 0 DROPPED PREFETCHES: 0
PSCL3 COMMIT LATE PREFETCHES: 0 MISSED OPPORTUNITY: 0 LATE IN PQ: 0 UNCOVERED: 0
PSCL3 COMMIT LATE MSHR PREFETCHES: 0
PSCL3 MPKI TOTAL: 0 MSHR LATE: 0 PQ LATE: 0 COMMIT LATE: 0 MISSED OPPORTUNITY: 0 UNCOVERED: 0
PSCL3 PREFETCHES SAME FILL-ORIGIN LEVEL: 0 DIFFERENT FILL-ORIGIN LEVEL: 0

PSCL2 SPEC fills:          0  NON-SPEC fills:          0
PSCL2 Test counter :          0
PSCL2 Leapfrog:          0
PSCL2 MSHR merge:          0
PSCL2 TOTAL     ACCESS:          0  HIT:          0  MISS:          0  HIT %:       -nan  MISS %:       -nan   MPKI: 0
PSCL2 PREFETCH  REQUESTED:          0  ISSUED:          0  USEFUL:          0  USELESS:          0
PSCL2 USEFUL LOAD PREFETCHES:          0 PREFETCH ISSUED TO LOWER LEVEL:          0  ACCURACY: -nan
PSCL2 TIMELY PREFETCHES:          0 LATE PREFETCHES: 0 DROPPED PREFETCHES: 0
PSCL2 COMMIT LATE PREFETCHES: 0 MISSED OPPORTUNITY: 0 LATE IN PQ: 0 UNCOVERED: 0
PSCL2 COMMIT LATE MSHR PREFETCHES: 0
PSCL2 MPKI TOTAL: 0 MSHR LATE: 0 PQ LATE: 0 COMMIT LATE: 0 MISSED OPPORTUNITY: 0 UNCOVERED: 0
PSCL2 PREFETCHES SAME FILL-ORIGIN LEVEL: 0 DIFFERENT FILL-ORIGIN LEVEL: 0

LLC SPEC fills:          0  NON-SPEC fills:       2489
LLC Test counter :      35946
LLC Leapfrog:          0
LLC MSHR merge:          0
LLC TOTAL     ACCESS:     872028  HIT:     255091  MISS:     616937  HIT %:    29.2526  MISS %:    70.7474   MPKI: 3.08468
LLC LOAD      TOTAL       ACCESS:       7916  HIT:         46  MISS:       7870  HIT %:   0.581102  MISS %:    99.4189   MPKI: 0.03935
LLC LOAD      NON_SPEC    ACCESS:       2603  HIT:          8  MISS:       2595  HIT %:   0.307338  MISS %:    99.6927   MPKI: 0.012975
LLC LOAD      SPEC        ACCESS:       5313  HIT:         38  MISS:       5275  HIT %:   0.715227  MISS %:    99.2848   MPKI: 0.026375
LLC RFO       NON_SPEC    ACCESS:     157151  HIT:          1  MISS:     157150  HIT %: 0.000636331  MISS %:    99.9994   MPKI: 0.78575
LLC PREFETCH  NON_SPEC    ACCESS:     447372  HIT:        490  MISS:     446882  HIT %:   0.109529  MISS %:    99.8905   MPKI: 2.23441
LLC WRITEBACK NON_SPEC    ACCESS:     223122  HIT:     222721  MISS:        401  HIT %:    99.8203  MISS %:   0.179722   MPKI: 0.002005
LLC CLEAN_EVICTION NON_SPEC    ACCESS:      34318  HIT:      31825  MISS:       2493  HIT %:    92.7356  MISS %:    7.26441   MPKI: 0.012465
LLC COMMIT LOAD NON_SPEC    ACCESS:          5  HIT:          0  MISS:          5  HIT %:          0  MISS %:        100   MPKI: 2.5e-05
LLC LOAD TRANSLATION NON_SPEC    ACCESS:        919  HIT:          8  MISS:        911  HIT %:   0.870511  MISS %:    99.1295   MPKI: 0.004555
LLC TRANSLATION FROM L1D PREFETCHER NON_SPEC    ACCESS:       1225  HIT:          0  MISS:       1225  HIT %:          0  MISS %:        100   MPKI: 0.006125
LLC PREFETCH  REQUESTED:          0  ISSUED:          0  USEFUL:         38  USELESS:     448679
LLC USEFUL LOAD PREFETCHES:         38 PREFETCH ISSUED TO LOWER LEVEL:     446882  ACCURACY: 0.00850336
LLC TIMELY PREFETCHES:         38 LATE PREFETCHES: 0 DROPPED PREFETCHES: 0
LLC COMMIT LATE PREFETCHES: 0 MISSED OPPORTUNITY: 0 LATE IN PQ: 0 UNCOVERED: 0
LLC COMMIT LATE MSHR PREFETCHES: 0
LLC MPKI TOTAL: 0.03935 MSHR LATE: 0 PQ LATE: 0 COMMIT LATE: 0 MISSED OPPORTUNITY: 0 UNCOVERED: 0
LLC PREFETCHES SAME FILL-ORIGIN LEVEL: 0 DIFFERENT FILL-ORIGIN LEVEL: 0
LLC AVERAGE MISS LATENCY: 250.917 cycles
LLC AVERAGE MISS LATENCY LOAD: 245.753 cycles
LLC AVERAGE MISS LATENCY PREFETCH: 253.309 cycles
LLC AVERAGE MSHR OCCUPANCY: 4.65729
LLC MSHR FULL: 0
LLC RQ	ACCESS:     167216	FORWARD:          0	MERGED:          0	TO_CACHE:     167216
LLC WQ	ACCESS:     257440	FORWARD:          0	MERGED:          0	TO_CACHE:     257440
LLC PQ	ACCESS:     447372	FORWARD:          0	MERGED:          0	TO_CACHE:     447372

LLC Dense regions hint to LLC: 0

RAW hits: 5673469
Loads Generated: 45770347
Loads sent to L1D: 40096878
Stores Generated: 21712374
Stores sent to L1D: 21712373
Major fault: 0 Minor fault: 7557
Allocated PAGES: 7557
Total Load insts: 49375535
Total Non-spec loads: 15291194
Percentage of speculative loads: 69.0308

LeapFrogging counter: 2503
Commit hits: 16428394 miss: 10206123
Commit hit %: 61.6808 miss %: 38.3192
Commits not translated: 0
Loads retired: 42472
Stores retired: 21712373
Cache fills: 42472
L1D response latency: 182.443 cycles
Load retirement latency: 287.2 cycles
OOO test counter: 0
Discarded buffer inserts: 16428394 hits: 1234 hit %: 0.00751139
Filter prediction accuracy: 99.9897
ALL MISSES SIZE: 951
LATENCY_FILL: 178.203 42380
LATENCY_FILL_ROB: 244.384 42339
test counter pref: 530970
Max ROB Extended: 10

DRAM Statistics
 CHANNEL 0
 RQ ROW_BUFFER_HIT:     150640  ROW_BUFFER_MISS:     463403
 DBUS_CONGESTED:         51
 WQ ROW_BUFFER_HIT:      45925  ROW_BUFFER_MISS:     211950  FULL:          0

 AVG_CONGESTED_CYCLE: 4
 All warmup complete: 2
Channel 0 Bank busy for read cycles: 0
Channel 0 Bank busy for write cycles: 0
Channel 0
Rank 0
0banks busy for read cycles: 264072311
0banks busy for write cycles: 80502
1banks busy for read cycles: 26019761
1banks busy for write cycles: 12784555
2banks busy for read cycles: 3560008
2banks busy for write cycles: 719380
3banks busy for read cycles: 2058929
3banks busy for write cycles: 204563
4banks busy for read cycles: 1143423
4banks busy for write cycles: 122430
5banks busy for read cycles: 990873
5banks busy for write cycles: 63678
6banks busy for read cycles: 942563
6banks busy for write cycles: 51888
7banks busy for read cycles: 1089031
7banks busy for write cycles: 243686
8banks busy for read cycles: 2304920
8banks busy for write cycles: 3473188

CPU 0 Branch Prediction Accuracy: 99.9797% MPKI: 0.020805 Average ROB Occupancy at Mispredict: 36.5746
Branch types
NOT_BRANCH: 179514591 89.7573%
BRANCH_DIRECT_JUMP: 1424895 0.712448%
BRANCH_INDIRECT: 16 8e-06%
BRANCH_CONDITIONAL: 13360262 6.68013%
BRANCH_DIRECT_CALL: 2849960 1.42498%
BRANCH_INDIRECT_CALL: 0 0%
BRANCH_RETURN: 2849960 1.42498%
BRANCH_OTHER: 0 0%

DRAM PAGES: 1048576
Allocated PAGES: 7557
