
*** ChampSim Multicore Out-of-Order Simulator ***

Warmup Instructions: 50000000
Simulation Instructions: 200000000
Number of CPUs: 1
LLC sets: 2048
LLC ways: 16
L0D sets: 16
L0D ways: 2
ROB size: 352
LQ size: 128
SQ size: 72
Secure Berti: ON
Berti: ON
Berti Fill: ON
On commit prefetching: OFF
Hit-based filter: ON
Time-guarding: ON
Free-slotting: ON
Leap-frogging: ON
Train prefetcher on L0D bypass: OFF
No translation penalty for prefetchers: OFF
Prefetch to L0D only: OFF
Prefetch to L1D only: OFF
Clean evictions: ON
Commit loads: ON
Commit write: ON
Fill commit loads to L2C, LLC: ON
DRAM IO FREQUENCY: 6400
ROB SIZE: 352
Off-chip DRAM Size: 4096 MB Channels: 1 Width: 64-bit Data Rate: 6400 MT/s
CPU 0 runs /home/sumon/secure_berti/GhostMinion/../../traces/spec/657.xz_s-2302B.champsimtrace.xz
.xz
BTB has LRU replacement policy
ITLB has LRU replacement policy
DTLB has LRU replacement policy
STLB has LRU replacement policy
L1I has LRU replacement policy
L0D has LRU replacement policy
Berti version on_commit
History Sets: 8
History Ways: 16
BERTI Size: 16
BERTI Stride Size: 16
L1D has LRU replacement policy
L2C has LRU replacement policy
LLC has LRU replacement policy
Heartbeat CPU 0 instructions: 10000001 cycles: 3125724 heartbeat IPC: 3.19926 cumulative IPC: 3.19926 (Simulation time: 0 hr 0 min 30 sec) 
Heartbeat CPU 0 instructions: 20000002 cycles: 6255536 heartbeat IPC: 3.19508 cumulative IPC: 3.19717 (Simulation time: 0 hr 1 min 0 sec) 
Heartbeat CPU 0 instructions: 30000000 cycles: 9501897 heartbeat IPC: 3.08037 cumulative IPC: 3.15726 (Simulation time: 0 hr 1 min 32 sec) 
Heartbeat CPU 0 instructions: 40000003 cycles: 12631293 heartbeat IPC: 3.19551 cumulative IPC: 3.16674 (Simulation time: 0 hr 2 min 2 sec) 
Heartbeat CPU 0 instructions: 50000000 cycles: 15781652 heartbeat IPC: 3.17424 cumulative IPC: 3.16824 (Simulation time: 0 hr 2 min 32 sec) 

Warmup complete CPU 0 instructions: 50000004 cycles: 15781653 (Simulation time: 0 hr 2 min 32 sec) 

Heartbeat CPU 0 instructions: 60000002 cycles: 32638032 heartbeat IPC: 0.593247 cumulative IPC: 0.593247 (Simulation time: 0 hr 3 min 10 sec) 
Heartbeat CPU 0 instructions: 70000000 cycles: 48908086 heartbeat IPC: 0.614626 cumulative IPC: 0.603747 (Simulation time: 0 hr 3 min 47 sec) 
Heartbeat CPU 0 instructions: 80000003 cycles: 65564612 heartbeat IPC: 0.600365 cumulative IPC: 0.602616 (Simulation time: 0 hr 4 min 24 sec) 
Heartbeat CPU 0 instructions: 90000002 cycles: 82443249 heartbeat IPC: 0.592465 cumulative IPC: 0.600046 (Simulation time: 0 hr 5 min 2 sec) 
Heartbeat CPU 0 instructions: 100000001 cycles: 98713140 heartbeat IPC: 0.614632 cumulative IPC: 0.602907 (Simulation time: 0 hr 5 min 39 sec) 
Heartbeat CPU 0 instructions: 110000000 cycles: 115588698 heartbeat IPC: 0.592573 cumulative IPC: 0.60116 (Simulation time: 0 hr 6 min 17 sec) 
Heartbeat CPU 0 instructions: 120000003 cycles: 132626592 heartbeat IPC: 0.586927 cumulative IPC: 0.599085 (Simulation time: 0 hr 6 min 55 sec) 
Heartbeat CPU 0 instructions: 130000000 cycles: 149829312 heartbeat IPC: 0.581303 cumulative IPC: 0.596803 (Simulation time: 0 hr 7 min 33 sec) 
Heartbeat CPU 0 instructions: 140000003 cycles: 165793755 heartbeat IPC: 0.626392 cumulative IPC: 0.599952 (Simulation time: 0 hr 8 min 11 sec) 
Heartbeat CPU 0 instructions: 150000003 cycles: 183027902 heartbeat IPC: 0.580243 cumulative IPC: 0.597921 (Simulation time: 0 hr 8 min 50 sec) 
Heartbeat CPU 0 instructions: 160000003 cycles: 200161783 heartbeat IPC: 0.583639 cumulative IPC: 0.596594 (Simulation time: 0 hr 9 min 28 sec) 
Heartbeat CPU 0 instructions: 170000000 cycles: 215080257 heartbeat IPC: 0.67031 cumulative IPC: 0.602112 (Simulation time: 0 hr 10 min 6 sec) 
Heartbeat CPU 0 instructions: 180000001 cycles: 229119095 heartbeat IPC: 0.71231 cumulative IPC: 0.609363 (Simulation time: 0 hr 10 min 44 sec) 
Heartbeat CPU 0 instructions: 190000002 cycles: 243071742 heartbeat IPC: 0.71671 cumulative IPC: 0.615953 (Simulation time: 0 hr 11 min 22 sec) 
Heartbeat CPU 0 instructions: 200000002 cycles: 257039026 heartbeat IPC: 0.715959 cumulative IPC: 0.621743 (Simulation time: 0 hr 12 min 0 sec) 
Heartbeat CPU 0 instructions: 210000000 cycles: 270975478 heartbeat IPC: 0.717543 cumulative IPC: 0.626974 (Simulation time: 0 hr 12 min 38 sec) 
Heartbeat CPU 0 instructions: 220000000 cycles: 284924470 heartbeat IPC: 0.716898 cumulative IPC: 0.631635 (Simulation time: 0 hr 13 min 15 sec) 
Heartbeat CPU 0 instructions: 230000003 cycles: 299000220 heartbeat IPC: 0.710442 cumulative IPC: 0.635552 (Simulation time: 0 hr 13 min 52 sec) 
Heartbeat CPU 0 instructions: 240000001 cycles: 313122293 heartbeat IPC: 0.708111 cumulative IPC: 0.638998 (Simulation time: 0 hr 14 min 29 sec) 
Heartbeat CPU 0 instructions: 250000003 cycles: 327172528 heartbeat IPC: 0.711732 cumulative IPC: 0.64228 (Simulation time: 0 hr 15 min 6 sec) 
Finished CPU 0 instructions: 200000003 cycles: 311390876 cumulative IPC: 0.64228 (Simulation time: 0 hr 15 min 6 sec) 
 Instruction ID: 250000106

ChampSim completed all CPUs

Region of Interest Statistics

CPU 0 cumulative IPC: 0.64228 instructions: 200000003 cycles: 311390876
ITLB SPEC fills:          0  NON-SPEC fills:          0
ITLB Test counter :          0
ITLB Leapfrog:          0
ITLB MSHR merge:          0
ITLB TOTAL     ACCESS:   28831354  HIT:   28831354  MISS:          0  HIT %:        100  MISS %:          0   MPKI: 0
ITLB LOAD TRANSLATION NON_SPEC    ACCESS:   28831354  HIT:   28831354  MISS:          0  HIT %:        100  MISS %:          0   MPKI: 0
ITLB PREFETCH  REQUESTED:          0  ISSUED:          0  USEFUL:          0  USELESS:          0
ITLB USEFUL LOAD PREFETCHES:          0 PREFETCH ISSUED TO LOWER LEVEL:          0  ACCURACY: -nan
ITLB TIMELY PREFETCHES:          0 LATE PREFETCHES: 0 DROPPED PREFETCHES: 0
ITLB COMMIT LATE PREFETCHES: 0 MISSED OPPORTUNITY: 0 LATE IN PQ: 0 UNCOVERED: 0
ITLB COMMIT LATE MSHR PREFETCHES: 0
ITLB MPKI TOTAL: 0 MSHR LATE: 0 PQ LATE: 0 COMMIT LATE: 0 MISSED OPPORTUNITY: 0 UNCOVERED: 0
ITLB PREFETCHES SAME FILL-ORIGIN LEVEL: 0 DIFFERENT FILL-ORIGIN LEVEL: 0
ITLB AVERAGE MISS LATENCY: -nan cycles
ITLB AVERAGE MISS LATENCY LOAD: -nan cycles
ITLB AVERAGE MISS LATENCY PREFETCH: -nan cycles
ITLB AVERAGE MSHR OCCUPANCY: 0
ITLB MSHR FULL: 0
ITLB RQ	ACCESS:   34293045	FORWARD:          0	MERGED:    5461692	TO_CACHE:   28831353

DTLB SPEC fills:          0  NON-SPEC fills:          0
DTLB Test counter :          0
DTLB Leapfrog:          0
DTLB MSHR merge:          0
DTLB TOTAL     ACCESS:   45132463  HIT:   44212551  MISS:     919912  HIT %:    97.9618  MISS %:    2.03825   MPKI: 4.59956
DTLB LOAD TRANSLATION NON_SPEC    ACCESS:   45132463  HIT:   44212551  MISS:     919912  HIT %:    97.9618  MISS %:    2.03825   MPKI: 4.59956
DTLB PREFETCH  REQUESTED:          0  ISSUED:          0  USEFUL:          0  USELESS:          0
DTLB USEFUL LOAD PREFETCHES:          0 PREFETCH ISSUED TO LOWER LEVEL:          0  ACCURACY: -nan
DTLB TIMELY PREFETCHES:          0 LATE PREFETCHES: 0 DROPPED PREFETCHES: 0
DTLB COMMIT LATE PREFETCHES: 0 MISSED OPPORTUNITY: 0 LATE IN PQ: 0 UNCOVERED: 0
DTLB COMMIT LATE MSHR PREFETCHES: 0
DTLB MPKI TOTAL: 0 MSHR LATE: 0 PQ LATE: 0 COMMIT LATE: 0 MISSED OPPORTUNITY: 0 UNCOVERED: 0
DTLB PREFETCHES SAME FILL-ORIGIN LEVEL: 0 DIFFERENT FILL-ORIGIN LEVEL: 0
DTLB AVERAGE MISS LATENCY: 20.6954 cycles
DTLB AVERAGE MISS LATENCY LOAD: -nan cycles
DTLB AVERAGE MISS LATENCY PREFETCH: -nan cycles
DTLB AVERAGE MSHR OCCUPANCY: 0.056346
DTLB MSHR FULL: 6.64606e-08
DTLB RQ	ACCESS:   55954870	FORWARD:          0	MERGED:   10815346	TO_CACHE:   45139524

STLB SPEC fills:          0  NON-SPEC fills:          0
STLB Test counter :          0
STLB Leapfrog:          0
STLB MSHR merge:          0
STLB TOTAL     ACCESS:    1373415  HIT:    1239073  MISS:     134342  HIT %:    90.2184  MISS %:     9.7816   MPKI: 0.67171
STLB LOAD TRANSLATION NON_SPEC    ACCESS:     919912  HIT:     785814  MISS:     134098  HIT %:    85.4227  MISS %:    14.5773   MPKI: 0.67049
STLB TRANSLATION FROM L1D PREFETCHER NON_SPEC    ACCESS:     453503  HIT:     453259  MISS:        244  HIT %:    99.9462  MISS %:  0.0538034   MPKI: 0.00122
STLB PREFETCH  REQUESTED:          0  ISSUED:          0  USEFUL:        169  USELESS:         75
STLB USEFUL LOAD PREFETCHES:        169 PREFETCH ISSUED TO LOWER LEVEL:          0  ACCURACY: inf
STLB TIMELY PREFETCHES:        169 LATE PREFETCHES: 63 DROPPED PREFETCHES: 1019
STLB COMMIT LATE PREFETCHES: 0 MISSED OPPORTUNITY: 0 LATE IN PQ: 0 UNCOVERED: 0
STLB COMMIT LATE MSHR PREFETCHES: 0
STLB MPKI TOTAL: 0 MSHR LATE: 0.000315 PQ LATE: 0 COMMIT LATE: 0 MISSED OPPORTUNITY: 0 UNCOVERED: 0
STLB PREFETCHES SAME FILL-ORIGIN LEVEL: 0 DIFFERENT FILL-ORIGIN LEVEL: 0
STLB AVERAGE MISS LATENCY: 80.1462 cycles
STLB AVERAGE MISS LATENCY LOAD: -nan cycles
STLB AVERAGE MISS LATENCY PREFETCH: -nan cycles
STLB AVERAGE MSHR OCCUPANCY: 0.0599366
STLB MSHR FULL: 0
STLB RQ	ACCESS:    1991431	FORWARD:          0	MERGED:     616279	TO_CACHE:    1375152

STLB Hit, L1D data hit: 0
STLB Hit, L2C data hit: 0
STLB Hit, LLC data hit: 0
STLB Hit, LLC data miss: 0
STLB STLB hints to L2: 0
L0D SPEC fills:   23832383  NON-SPEC fills:          0
L0D TimeGuard Request with older TS:     116936 Restricted eviction:      83118 read:     276249
L0D Test counter :          0
L0D Leapfrog:          0
L0D MSHR merge:     819055
L0D TOTAL     ACCESS:   37938000  HIT:    5426322  MISS:   32511678  HIT %:    14.3031  MISS %:    85.6969   MPKI: 162.558
L0D LOAD      TOTAL       ACCESS:   37938000  HIT:    5426322  MISS:   32511678  HIT %:    14.3031  MISS %:    85.6969   MPKI: 162.558
L0D LOAD      NON_SPEC    ACCESS:    9063591  HIT:     467413  MISS:    8596178  HIT %:    5.15704  MISS %:     94.843   MPKI: 42.9809
L0D LOAD      SPEC        ACCESS:   28874409  HIT:    4958909  MISS:   23915500  HIT %:    17.1741  MISS %:    82.8259   MPKI: 119.577
L0D PREFETCH  REQUESTED:          0  ISSUED:          0  USEFUL:          0  USELESS:          0
L0D USEFUL LOAD PREFETCHES:          0 PREFETCH ISSUED TO LOWER LEVEL:          0  ACCURACY: -nan
L0D TIMELY PREFETCHES:          0 LATE PREFETCHES: 0 DROPPED PREFETCHES: 0
L0D COMMIT LATE PREFETCHES: 0 MISSED OPPORTUNITY: 0 LATE IN PQ: 0 UNCOVERED: 0
L0D COMMIT LATE MSHR PREFETCHES: 0
L0D MPKI TOTAL: 166.654 MSHR LATE: 0 PQ LATE: 0 COMMIT LATE: 0 MISSED OPPORTUNITY: 0 UNCOVERED: 0
L0D PREFETCHES SAME FILL-ORIGIN LEVEL: 0 DIFFERENT FILL-ORIGIN LEVEL: 0
L0D AVERAGE MISS LATENCY: 6.72838 cycles
L0D AVERAGE MISS LATENCY LOAD: 6.72838 cycles
L0D AVERAGE MISS LATENCY PREFETCH: -nan cycles
L0D AVERAGE MSHR OCCUPANCY: 0.618957
L0D MSHR FULL: 1.59971e-06
L0D RQ	ACCESS:   45263304	FORWARD:          0	MERGED:    6506250	TO_CACHE:   38757054
L0D WQ	ACCESS:   17197816	FORWARD:          0	MERGED:          0	TO_CACHE:   17197816

L1D SPEC fills:          0  NON-SPEC fills:     131193
L1D Test counter :     857611
L1D Leapfrog:          0
L1D MSHR merge:        708
L1D TOTAL     ACCESS:   51190376  HIT:   49179492  MISS:    2010884  HIT %:    96.0718  MISS %:    3.92825   MPKI: 10.0544
L1D LOAD      TOTAL       ACCESS:   32511064  HIT:   31508878  MISS:    1002186  HIT %:    96.9174  MISS %:     3.0826   MPKI: 5.01093
L1D LOAD      NON_SPEC    ACCESS:    8595887  HIT:    8464694  MISS:     131193  HIT %:    98.4738  MISS %:    1.52623   MPKI: 0.655965
L1D LOAD      SPEC        ACCESS:   23915177  HIT:   23044184  MISS:     870993  HIT %:     96.358  MISS %:    3.64201   MPKI: 4.35496
L1D RFO       NON_SPEC    ACCESS:   16883934  HIT:   16750291  MISS:     133643  HIT %:    99.2085  MISS %:   0.791539   MPKI: 0.668215
L1D PREFETCH  NON_SPEC    ACCESS:     697521  HIT:     687156  MISS:      10365  HIT %:     98.514  MISS %:    1.48598   MPKI: 0.051825
L1D COMMIT LOAD NON_SPEC    ACCESS:     219505  HIT:     193280  MISS:      26225  HIT %:    88.0527  MISS %:    11.9473   MPKI: 0.131125
L1D COMMIT WRITE NON_SPEC    ACCESS:     878352  HIT:      39887  MISS:     838465  HIT %:    4.54112  MISS %:    95.4589   MPKI: 4.19232
L1D PREFETCH  REQUESTED:    1357027  ISSUED:    1352585  USEFUL:       6576  USELESS:       3789
L1D USEFUL LOAD PREFETCHES:       6576 PREFETCH ISSUED TO LOWER LEVEL:     375699  ACCURACY: 1.75034
L1D TIMELY PREFETCHES:       6576 LATE PREFETCHES: 94 DROPPED PREFETCHES: 3305
L1D COMMIT LATE PREFETCHES: 0 MISSED OPPORTUNITY: 0 LATE IN PQ: 0 UNCOVERED: 0
L1D COMMIT LATE MSHR PREFETCHES: 0
L1D MPKI TOTAL: 5.014 MSHR LATE: 0.00047 PQ LATE: 0 COMMIT LATE: 0 MISSED OPPORTUNITY: 0 UNCOVERED: 0
L1D PREFETCHES SAME FILL-ORIGIN LEVEL: 10624 DIFFERENT FILL-ORIGIN LEVEL: 365075
L1D AVERAGE MISS LATENCY: 30.0959 cycles
L1D AVERAGE MISS LATENCY LOAD: 51.3529 cycles
L1D AVERAGE MISS LATENCY PREFETCH: 32.2743 cycles
L1D AVERAGE MSHR OCCUPANCY: 0.0668128
L1D MSHR FULL: 0
L1D RQ	ACCESS:   32852225	FORWARD:          0	MERGED:     108200	TO_CACHE:   32731569
L1D WQ	ACCESS:   18076184	FORWARD:      12456	MERGED:     263920	TO_CACHE:   17812264
L1D PQ	ACCESS:    1352585	FORWARD:          0	MERGED:     281066	TO_CACHE:    1071519

L1D UNIQUE REGIONS ACCESSED: 0
L1D REGIONS CONFLICTS: 0
L1D Cross Page Prefetch Requests: 149272
L1D Same Page Prefetch Requests: 1648676
L1D ROI Sum of L1D PQ occupancy: 17154884
L1D PREFETCHES PUSHED FROM L2C: 0
L1I SPEC fills:          0  NON-SPEC fills:          0
L1I Test counter :          0
L1I Leapfrog:          0
L1I MSHR merge:        195
L1I TOTAL     ACCESS:   34292850  HIT:   34292458  MISS:        392  HIT %:    99.9989  MISS %:  0.0011431   MPKI: 0.00196
L1I LOAD      TOTAL       ACCESS:   34292850  HIT:   34292458  MISS:        392  HIT %:    99.9989  MISS %:  0.0011431   MPKI: 0.00196
L1I LOAD      NON_SPEC    ACCESS:   34292850  HIT:   34292458  MISS:        392  HIT %:    99.9989  MISS %:  0.0011431   MPKI: 0.00196
L1I PREFETCH  REQUESTED:          0  ISSUED:          0  USEFUL:          0  USELESS:          0
L1I USEFUL LOAD PREFETCHES:          0 PREFETCH ISSUED TO LOWER LEVEL:          0  ACCURACY: -nan
L1I TIMELY PREFETCHES:          0 LATE PREFETCHES: 0 DROPPED PREFETCHES: 0
L1I COMMIT LATE PREFETCHES: 0 MISSED OPPORTUNITY: 0 LATE IN PQ: 0 UNCOVERED: 0
L1I COMMIT LATE MSHR PREFETCHES: 0
L1I MPKI TOTAL: 0.002935 MSHR LATE: 0 PQ LATE: 0 COMMIT LATE: 0 MISSED OPPORTUNITY: 0 UNCOVERED: 0
L1I PREFETCHES SAME FILL-ORIGIN LEVEL: 0 DIFFERENT FILL-ORIGIN LEVEL: 0
L1I AVERAGE MISS LATENCY: 86.1837 cycles
L1I AVERAGE MISS LATENCY LOAD: 86.1837 cycles
L1I AVERAGE MISS LATENCY PREFETCH: -nan cycles
L1I AVERAGE MSHR OCCUPANCY: 2.02373e-05
L1I MSHR FULL: 0
L1I RQ	ACCESS:   52175564	FORWARD:          0	MERGED:   17882519	TO_CACHE:   34293045

BTB SPEC fills:          0  NON-SPEC fills:          0
BTB Test counter :          0
BTB Leapfrog:          0
BTB MSHR merge:          0
BTB TOTAL     ACCESS:   23485692  HIT:   23238860  MISS:     246832  HIT %:     98.949  MISS %:    1.05099   MPKI: 1.23416
BTB BRANCH_DIRECT_JUMP	ACCESS:    2818425  HIT:    2818347  MISS:         78
BTB BRANCH_INDIRECT	ACCESS:     447403  HIT:     208958  MISS:     238445
BTB BRANCH_CONDITIONAL	ACCESS:   19634890  HIT:   19634641  MISS:        249
BTB BRANCH_DIRECT_CALL	ACCESS:     190457  HIT:     190438  MISS:         19
BTB BRANCH_INDIRECT_CALL	ACCESS:     102031  HIT:     102024  MISS:          7
BTB BRANCH_RETURN	ACCESS:     292486  HIT:     284452  MISS:       8034
BTB BRANCH_OTHER ACCESS:          0  HIT:          0  MISS:          0

L2C SPEC fills:          0  NON-SPEC fills:      38931
L2C Test counter :     423105
L2C Leapfrog:          0
L2C MSHR merge:         55
L2C TOTAL     ACCESS:    3197002  HIT:    2238901  MISS:     958101  HIT %:    70.0313  MISS %:    29.9687   MPKI: 4.7905
L2C LOAD      TOTAL       ACCESS:    1002447  HIT:     553970  MISS:     448477  HIT %:    55.2618  MISS %:    44.7382   MPKI: 2.24238
L2C LOAD      NON_SPEC    ACCESS:     131496  HIT:      92177  MISS:      39319  HIT %:    70.0987  MISS %:    29.9013   MPKI: 0.196595
L2C LOAD      SPEC        ACCESS:     870951  HIT:     461793  MISS:     409158  HIT %:    53.0217  MISS %:    46.9783   MPKI: 2.04579
L2C RFO       NON_SPEC    ACCESS:     133181  HIT:      88464  MISS:      44717  HIT %:    66.4239  MISS %:    33.5761   MPKI: 0.223585
L2C PREFETCH  NON_SPEC    ACCESS:     333782  HIT:     308794  MISS:      24988  HIT %:    92.5137  MISS %:    7.48632   MPKI: 0.12494
L2C WRITEBACK NON_SPEC    ACCESS:     166641  HIT:     165577  MISS:       1064  HIT %:    99.3615  MISS %:   0.638498   MPKI: 0.00532
L2C CLEAN_EVICTION NON_SPEC    ACCESS:     857611  HIT:     446567  MISS:     411044  HIT %:     52.071  MISS %:     47.929   MPKI: 2.05522
L2C COMMIT LOAD NON_SPEC    ACCESS:      26225  HIT:      21342  MISS:       4883  HIT %:    81.3804  MISS %:    18.6196   MPKI: 0.024415
L2C LOAD TRANSLATION NON_SPEC    ACCESS:     670485  HIT:     647708  MISS:      22777  HIT %:    96.6029  MISS %:    3.39709   MPKI: 0.113885
L2C TRANSLATION FROM L1D PREFETCHER NON_SPEC    ACCESS:       6630  HIT:       6479  MISS:        151  HIT %:    97.7225  MISS %:    2.27753   MPKI: 0.000755
L2C PREFETCH  REQUESTED:          0  ISSUED:          0  USEFUL:       4815  USELESS:      20005
L2C USEFUL LOAD PREFETCHES:       4815 PREFETCH ISSUED TO LOWER LEVEL:      25056  ACCURACY: 19.217
L2C TIMELY PREFETCHES:       4815 LATE PREFETCHES: 68 DROPPED PREFETCHES: 0
L2C COMMIT LATE PREFETCHES: 0 MISSED OPPORTUNITY: 0 LATE IN PQ: 0 UNCOVERED: 0
L2C COMMIT LATE MSHR PREFETCHES: 0
L2C MPKI TOTAL: 2.24238 MSHR LATE: 0.00034 PQ LATE: 0 COMMIT LATE: 0 MISSED OPPORTUNITY: 0 UNCOVERED: 0
L2C PREFETCHES SAME FILL-ORIGIN LEVEL: 23833 DIFFERENT FILL-ORIGIN LEVEL: 0
L2C AVERAGE MISS LATENCY: 53.3575 cycles
L2C AVERAGE MISS LATENCY LOAD: 89.0147 cycles
L2C AVERAGE MISS LATENCY PREFETCH: 143.894 cycles
L2C AVERAGE MSHR OCCUPANCY: 0.244158
L2C MSHR FULL: 0
L2C RQ	ACCESS:    1839302	FORWARD:          0	MERGED:          0	TO_CACHE:    1838968
L2C WQ	ACCESS:    1024252	FORWARD:        334	MERGED:          0	TO_CACHE:    1024252
L2C PQ	ACCESS:     375690	FORWARD:          0	MERGED:        106	TO_CACHE:     375584

L2C Instructions Evicting Data 376
L2C Translations Evicting Data 21921
L2C Data Evicting Data 108555
L2C Instructions Evicting Instructions 0
L2C Translations Evicting Instructions 23
L2C Data Evicting Instructions 83
L2C Instructions Evicting Translations 12
L2C Translations Evicting Translations 984
L2C Data Evicting Translations 4881
L2C Dense regions hint from L2: 0
PSCL5 SPEC fills:          0  NON-SPEC fills:          0
PSCL5 Test counter :          0
PSCL5 Leapfrog:          0
PSCL5 MSHR merge:          0
PSCL5 TOTAL     ACCESS:          0  HIT:          0  MISS:          0  HIT %:       -nan  MISS %:       -nan   MPKI: 0
PSCL5 PREFETCH  REQUESTED:          0  ISSUED:          0  USEFUL:          0  USELESS:          0
PSCL5 USEFUL LOAD PREFETCHES:          0 PREFETCH ISSUED TO LOWER LEVEL:          0  ACCURACY: -nan
PSCL5 TIMELY PREFETCHES:          0 LATE PREFETCHES: 0 DROPPED PREFETCHES: 0
PSCL5 COMMIT LATE PREFETCHES: 0 MISSED OPPORTUNITY: 0 LATE IN PQ: 0 UNCOVERED: 0
PSCL5 COMMIT LATE MSHR PREFETCHES: 0
PSCL5 MPKI TOTAL: 0 MSHR LATE: 0 PQ LATE: 0 COMMIT LATE: 0 MISSED OPPORTUNITY: 0 UNCOVERED: 0
PSCL5 PREFETCHES SAME FILL-ORIGIN LEVEL: 0 DIFFERENT FILL-ORIGIN LEVEL: 0

PSCL4 SPEC fills:          0  NON-SPEC fills:          0
PSCL4 Test counter :          0
PSCL4 Leapfrog:          0
PSCL4 MSHR merge:          0
PSCL4 TOTAL     ACCESS:          0  HIT:          0  MISS:          0  HIT %:       -nan  MISS %:       -nan   MPKI: 0
PSCL4 PREFETCH  REQUESTED:          0  ISSUED:          0  USEFUL:          0  USELESS:          0
PSCL4 USEFUL LOAD PREFETCHES:          0 PREFETCH ISSUED TO LOWER LEVEL:          0  ACCURACY: -nan
PSCL4 TIMELY PREFETCHES:          0 LATE PREFETCHES: 0 DROPPED PREFETCHES: 0
PSCL4 COMMIT LATE PREFETCHES: 0 MISSED OPPORTUNITY: 0 LATE IN PQ: 0 UNCOVERED: 0
PSCL4 COMMIT LATE MSHR PREFETCHES: 0
PSCL4 MPKI TOTAL: 0 MSHR LATE: 0 PQ LATE: 0 COMMIT LATE: 0 MISSED OPPORTUNITY: 0 UNCOVERED: 0
PSCL4 PREFETCHES SAME FILL-ORIGIN LEVEL: 0 DIFFERENT FILL-ORIGIN LEVEL: 0

PSCL3 SPEC fills:          0  NON-SPEC fills:          0
PSCL3 Test counter :          0
PSCL3 Leapfrog:          0
PSCL3 MSHR merge:          0
PSCL3 TOTAL     ACCESS:          0  HIT:          0  MISS:          0  HIT %:       -nan  MISS %:       -nan   MPKI: 0
PSCL3 PREFETCH  REQUESTED:          0  ISSUED:          0  USEFUL:          0  USELESS:          0
PSCL3 USEFUL LOAD PREFETCHES:          0 PREFETCH ISSUED TO LOWER LEVEL:          0  ACCURACY: -nan
PSCL3 TIMELY PREFETCHES:          0 LATE PREFETCHES: 0 DROPPED PREFETCHES: 0
PSCL3 COMMIT LATE PREFETCHES: 0 MISSED OPPORTUNITY: 0 LATE IN PQ: 0 UNCOVERED: 0
PSCL3 COMMIT LATE MSHR PREFETCHES: 0
PSCL3 MPKI TOTAL: 0 MSHR LATE: 0 PQ LATE: 0 COMMIT LATE: 0 MISSED OPPORTUNITY: 0 UNCOVERED: 0
PSCL3 PREFETCHES SAME FILL-ORIGIN LEVEL: 0 DIFFERENT FILL-ORIGIN LEVEL: 0

PSCL2 SPEC fills:          0  NON-SPEC fills:          0
PSCL2 Test counter :          0
PSCL2 Leapfrog:          0
PSCL2 MSHR merge:          0
PSCL2 TOTAL     ACCESS:          0  HIT:          0  MISS:          0  HIT %:       -nan  MISS %:       -nan   MPKI: 0
PSCL2 PREFETCH  REQUESTED:          0  ISSUED:          0  USEFUL:          0  USELESS:          0
PSCL2 USEFUL LOAD PREFETCHES:          0 PREFETCH ISSUED TO LOWER LEVEL:          0  ACCURACY: -nan
PSCL2 TIMELY PREFETCHES:          0 LATE PREFETCHES: 0 DROPPED PREFETCHES: 0
PSCL2 COMMIT LATE PREFETCHES: 0 MISSED OPPORTUNITY: 0 LATE IN PQ: 0 UNCOVERED: 0
PSCL2 COMMIT LATE MSHR PREFETCHES: 0
PSCL2 MPKI TOTAL: 0 MSHR LATE: 0 PQ LATE: 0 COMMIT LATE: 0 MISSED OPPORTUNITY: 0 UNCOVERED: 0
PSCL2 PREFETCHES SAME FILL-ORIGIN LEVEL: 0 DIFFERENT FILL-ORIGIN LEVEL: 0

LLC SPEC fills:          0  NON-SPEC fills:      14099
LLC Test counter :     211697
LLC Leapfrog:          0
LLC MSHR merge:          0
LLC TOTAL     ACCESS:    1025348  HIT:     584391  MISS:     440957  HIT %:    56.9944  MISS %:    43.0056   MPKI: 2.20478
LLC LOAD      TOTAL       ACCESS:     448421  HIT:     254537  MISS:     193884  HIT %:     56.763  MISS %:     43.237   MPKI: 0.96942
LLC LOAD      NON_SPEC    ACCESS:      39311  HIT:      25116  MISS:      14195  HIT %:    63.8905  MISS %:    36.1095   MPKI: 0.070975
LLC LOAD      SPEC        ACCESS:     409110  HIT:     229421  MISS:     179689  HIT %:    56.0781  MISS %:    43.9219   MPKI: 0.898445
LLC RFO       NON_SPEC    ACCESS:      44703  HIT:      16318  MISS:      28385  HIT %:    36.5031  MISS %:    63.4969   MPKI: 0.141925
LLC PREFETCH  NON_SPEC    ACCESS:      25056  HIT:       9665  MISS:      15391  HIT %:    38.5736  MISS %:    61.4264   MPKI: 0.076955
LLC WRITEBACK NON_SPEC    ACCESS:      56253  HIT:      55355  MISS:        898  HIT %:    98.4036  MISS %:    1.59636   MPKI: 0.00449
LLC CLEAN_EVICTION NON_SPEC    ACCESS:     423105  HIT:     224161  MISS:     198944  HIT %:      52.98  MISS %:      47.02   MPKI: 0.99472
LLC COMMIT LOAD NON_SPEC    ACCESS:       4882  HIT:       4811  MISS:         71  HIT %:    98.5457  MISS %:    1.45432   MPKI: 0.000355
LLC LOAD TRANSLATION NON_SPEC    ACCESS:      22777  HIT:      19415  MISS:       3362  HIT %:    85.2395  MISS %:    14.7605   MPKI: 0.01681
LLC TRANSLATION FROM L1D PREFETCHER NON_SPEC    ACCESS:        151  HIT:        129  MISS:         22  HIT %:    85.4305  MISS %:    14.5695   MPKI: 0.00011
LLC PREFETCH  REQUESTED:          0  ISSUED:          0  USEFUL:       3462  USELESS:      11442
LLC USEFUL LOAD PREFETCHES:       3462 PREFETCH ISSUED TO LOWER LEVEL:      15391  ACCURACY: 22.4937
LLC TIMELY PREFETCHES:       3462 LATE PREFETCHES: 0 DROPPED PREFETCHES: 0
LLC COMMIT LATE PREFETCHES: 0 MISSED OPPORTUNITY: 0 LATE IN PQ: 0 UNCOVERED: 0
LLC COMMIT LATE MSHR PREFETCHES: 0
LLC MPKI TOTAL: 0.96942 MSHR LATE: 0 PQ LATE: 0 COMMIT LATE: 0 MISSED OPPORTUNITY: 0 UNCOVERED: 0
LLC PREFETCHES SAME FILL-ORIGIN LEVEL: 0 DIFFERENT FILL-ORIGIN LEVEL: 0
LLC AVERAGE MISS LATENCY: 87.1237 cycles
LLC AVERAGE MISS LATENCY LOAD: 155.452 cycles
LLC AVERAGE MISS LATENCY PREFETCH: 185.26 cycles
LLC AVERAGE MSHR OCCUPANCY: 0.211497
LLC MSHR FULL: 0
LLC RQ	ACCESS:     520937	FORWARD:          0	MERGED:          0	TO_CACHE:     520934
LLC WQ	ACCESS:     479358	FORWARD:          3	MERGED:          0	TO_CACHE:     479358
LLC PQ	ACCESS:      25056	FORWARD:          0	MERGED:          0	TO_CACHE:      25056

LLC Dense regions hint to LLC: 0

RAW hits: 2062856
Loads Generated: 47326161
Loads sent to L1D: 45263304
Stores Generated: 17197827
Stores sent to L1D: 17197816
Major fault: 0 Minor fault: 8202
Allocated PAGES: 8202
Total Load insts: 55953855
Total Non-spec loads: 9916721
Percentage of speculative loads: 82.277

LeapFrogging counter: 8
Commit hits: 23737326 miss: 12285902
Commit hit %: 65.8945 miss %: 34.1055
Commits not translated: 0
Loads retired: 1002184
Stores retired: 17197816
Cache fills: 1002186
L1D response latency: 51.3529 cycles
Load retirement latency: 93.0708 cycles
OOO test counter: 0
Discarded buffer inserts: 23737326 hits: 7016 hit %: 0.0295568
Filter prediction accuracy: 99.975
ALL MISSES SIZE: 6133
LATENCY_FILL: 51.1765 1002028
LATENCY_FILL_ROB: 70.4948 1001687
test counter pref: 11096401
Max ROB Extended: 12

DRAM Statistics
 CHANNEL 0
 RQ ROW_BUFFER_HIT:       2843  ROW_BUFFER_MISS:     238272
 DBUS_CONGESTED:         15
 WQ ROW_BUFFER_HIT:      21642  ROW_BUFFER_MISS:     218665  FULL:          0

 AVG_CONGESTED_CYCLE: 4
 All warmup complete: 2
Channel 0 Bank busy for read cycles: 0
Channel 0 Bank busy for write cycles: 0
Channel 0
Rank 0
0banks busy for read cycles: 248805122
0banks busy for write cycles: 166557
1banks busy for read cycles: 27027635
1banks busy for write cycles: 25770041
2banks busy for read cycles: 3442721
2banks busy for write cycles: 4263405
3banks busy for read cycles: 427896
3banks busy for write cycles: 807768
4banks busy for read cycles: 87735
4banks busy for write cycles: 207236
5banks busy for read cycles: 26982
5banks busy for write cycles: 65307
6banks busy for read cycles: 13278
6banks busy for write cycles: 36476
7banks busy for read cycles: 12315
7banks busy for write cycles: 41324
8banks busy for read cycles: 6921
8banks busy for write cycles: 182158

CPU 0 Branch Prediction Accuracy: 92.4682% MPKI: 9.41666 Average ROB Occupancy at Mispredict: 24.4954
Branch types
NOT_BRANCH: 174994601 87.4973%
BRANCH_DIRECT_JUMP: 2818425 1.40921%
BRANCH_INDIRECT: 447403 0.223701%
BRANCH_CONDITIONAL: 21154324 10.5772%
BRANCH_DIRECT_CALL: 190457 0.0952285%
BRANCH_INDIRECT_CALL: 102031 0.0510155%
BRANCH_RETURN: 292486 0.146243%
BRANCH_OTHER: 0 0%

DRAM PAGES: 1048576
Allocated PAGES: 8202
