
*** ChampSim Multicore Out-of-Order Simulator ***

Warmup Instructions: 50000000
Simulation Instructions: 200000000
Number of CPUs: 1
LLC sets: 2048
LLC ways: 16
Secure Berti: OFF
Berti: OFF
Berti Fill: OFF
On commit prefetching: OFF
L2 LLC Bypass speculative loads: OFF
Off-chip DRAM Size: 4096 MB Channels: 1 Width: 64-bit Data Rate: 6400 MT/s
CPU 0 runs /home/sumon/secure_berti/Berti_Baseline/../../traces/gap/bfs-8.trace.gz
.gz
BTB has LRU replacement policy
ITLB has LRU replacement policy
DTLB has LRU replacement policy
STLB has LRU replacement policy
L1I has LRU replacement policy
History Sets: 8
History Ways: 16
BERTI Size: 16
BERTI Stride Size: 16
L1D has LRU replacement policy
L2C has LRU replacement policy
LLC has LRU replacement policy
Heartbeat CPU 0 instructions: 10000003 cycles: 2971986 heartbeat IPC: 3.36475 cumulative IPC: 3.36475 (Simulation time: 0 hr 0 min 11 sec) 
Heartbeat CPU 0 instructions: 20000001 cycles: 5936830 heartbeat IPC: 3.37286 cumulative IPC: 3.3688 (Simulation time: 0 hr 0 min 32 sec) 
Heartbeat CPU 0 instructions: 30000003 cycles: 8892258 heartbeat IPC: 3.38361 cumulative IPC: 3.37372 (Simulation time: 0 hr 0 min 55 sec) 
Heartbeat CPU 0 instructions: 40000002 cycles: 11959190 heartbeat IPC: 3.26059 cumulative IPC: 3.34471 (Simulation time: 0 hr 1 min 15 sec) 
Heartbeat CPU 0 instructions: 50000002 cycles: 15129947 heartbeat IPC: 3.15382 cumulative IPC: 3.3047 (Simulation time: 0 hr 1 min 29 sec) 

Warmup complete CPU 0 instructions: 50000002 cycles: 15129947 (Simulation time: 0 hr 1 min 29 sec) 

Heartbeat CPU 0 instructions: 60000000 cycles: 37366740 heartbeat IPC: 0.449705 cumulative IPC: 0.449705 (Simulation time: 0 hr 2 min 3 sec) 
Heartbeat CPU 0 instructions: 70000000 cycles: 57365642 heartbeat IPC: 0.500027 cumulative IPC: 0.473533 (Simulation time: 0 hr 2 min 27 sec) 
Heartbeat CPU 0 instructions: 80000001 cycles: 88079548 heartbeat IPC: 0.325585 cumulative IPC: 0.411243 (Simulation time: 0 hr 2 min 59 sec) 
Heartbeat CPU 0 instructions: 90000001 cycles: 126892976 heartbeat IPC: 0.257643 cumulative IPC: 0.3579 (Simulation time: 0 hr 3 min 32 sec) 
Heartbeat CPU 0 instructions: 100000000 cycles: 165847074 heartbeat IPC: 0.256712 cumulative IPC: 0.331747 (Simulation time: 0 hr 4 min 6 sec) 
Heartbeat CPU 0 instructions: 110000000 cycles: 209120667 heartbeat IPC: 0.231088 cumulative IPC: 0.309293 (Simulation time: 0 hr 4 min 40 sec) 
Heartbeat CPU 0 instructions: 120000002 cycles: 240249054 heartbeat IPC: 0.32125 cumulative IPC: 0.310946 (Simulation time: 0 hr 5 min 11 sec) 
Heartbeat CPU 0 instructions: 130000001 cycles: 255814551 heartbeat IPC: 0.642447 cumulative IPC: 0.332385 (Simulation time: 0 hr 5 min 35 sec) 
Heartbeat CPU 0 instructions: 140000000 cycles: 271934996 heartbeat IPC: 0.62033 cumulative IPC: 0.35046 (Simulation time: 0 hr 5 min 59 sec) 
Heartbeat CPU 0 instructions: 150000001 cycles: 297949621 heartbeat IPC: 0.384399 cumulative IPC: 0.353582 (Simulation time: 0 hr 6 min 29 sec) 
Heartbeat CPU 0 instructions: 160000000 cycles: 336029320 heartbeat IPC: 0.262607 cumulative IPC: 0.342787 (Simulation time: 0 hr 7 min 0 sec) 
Heartbeat CPU 0 instructions: 170000001 cycles: 374198166 heartbeat IPC: 0.261994 cumulative IPC: 0.334198 (Simulation time: 0 hr 7 min 31 sec) 
Heartbeat CPU 0 instructions: 180000000 cycles: 413214400 heartbeat IPC: 0.256304 cumulative IPC: 0.326564 (Simulation time: 0 hr 8 min 3 sec) 
Heartbeat CPU 0 instructions: 190000001 cycles: 462407644 heartbeat IPC: 0.20328 cumulative IPC: 0.313005 (Simulation time: 0 hr 8 min 39 sec) 
Heartbeat CPU 0 instructions: 200000000 cycles: 495327393 heartbeat IPC: 0.303769 cumulative IPC: 0.312371 (Simulation time: 0 hr 9 min 11 sec) 
Heartbeat CPU 0 instructions: 210000000 cycles: 511147030 heartbeat IPC: 0.632126 cumulative IPC: 0.32257 (Simulation time: 0 hr 9 min 35 sec) 
Heartbeat CPU 0 instructions: 220000000 cycles: 527300283 heartbeat IPC: 0.61907 cumulative IPC: 0.331921 (Simulation time: 0 hr 9 min 59 sec) 
Heartbeat CPU 0 instructions: 230000000 cycles: 554654207 heartbeat IPC: 0.365578 cumulative IPC: 0.333627 (Simulation time: 0 hr 10 min 30 sec) 
Heartbeat CPU 0 instructions: 240000001 cycles: 592128916 heartbeat IPC: 0.266847 cumulative IPC: 0.32929 (Simulation time: 0 hr 11 min 6 sec) 
Heartbeat CPU 0 instructions: 250000002 cycles: 629592399 heartbeat IPC: 0.266927 cumulative IPC: 0.325488 (Simulation time: 0 hr 11 min 41 sec) 
Finished CPU 0 instructions: 200000000 cycles: 614462452 cumulative IPC: 0.325488 (Simulation time: 0 hr 11 min 41 sec) 

ChampSim completed all CPUs

Region of Interest Statistics

CPU 0 cumulative IPC: 0.325488 instructions: 200000000 cycles: 614462452
ITLB TOTAL     ACCESS:   33977073  HIT:   33977073  MISS:          0  HIT %:        100  MISS %:          0   MPKI: 0
ITLB Test counter:          0
ITLB LOAD TRANSLATION ACCESS:   33977073  HIT:   33977073  MISS:          0  HIT %:        100  MISS %:          0   MPKI: 0
ITLB PREFETCH  REQUESTED:          0  ISSUED:          0  USEFUL:          0  USELESS:          0
ITLB USEFUL LOAD PREFETCHES:          0 PREFETCH ISSUED TO LOWER LEVEL:          0  ACCURACY: -nan
ITLB TIMELY PREFETCHES:          0 LATE PREFETCHES: 0 DROPPED PREFETCHES: 0
ITLB COMMIT LATE PREFETCHES: 0 MISSED OPPORTUNITY: 0 LATE IN PQ: 0 UNCOVERED: 0
ITLB COMMIT LATE MSHR PREFETCHES: 0
ITLB MPKI TOTAL: 0 MSHR LATE: 0 PQ LATE: 0 COMMIT LATE: 0 MISSED OPPORTUNITY: 0 UNCOVERED: 0
ITLB PREFETCHES SAME FILL-ORIGIN LEVEL: 0 DIFFERENT FILL-ORIGIN LEVEL: 0
ITLB AVERAGE MISS LATENCY: -nan cycles
ITLB AVERAGE MISS LATENCY LOAD: -nan cycles
ITLB AVERAGE MISS LATENCY PREFETCH: -nan cycles
ITLB AVERAGE MSHR OCCUPANCY: 0
ITLB MSHR FULL: 0
ITLB RQ	ACCESS:   42975385	FORWARD:          0	MERGED:    8998313	TO_CACHE:   33977072

DTLB TOTAL     ACCESS:   40153856  HIT:   39884775  MISS:     269081  HIT %:    99.3299  MISS %:   0.670125   MPKI: 1.3454
DTLB Test counter:          0
DTLB LOAD TRANSLATION ACCESS:   40153856  HIT:   39884775  MISS:     269081  HIT %:    99.3299  MISS %:   0.670125   MPKI: 1.3454
DTLB PREFETCH  REQUESTED:          0  ISSUED:          0  USEFUL:          0  USELESS:          0
DTLB USEFUL LOAD PREFETCHES:          0 PREFETCH ISSUED TO LOWER LEVEL:          0  ACCURACY: -nan
DTLB TIMELY PREFETCHES:          0 LATE PREFETCHES: 0 DROPPED PREFETCHES: 0
DTLB COMMIT LATE PREFETCHES: 0 MISSED OPPORTUNITY: 0 LATE IN PQ: 0 UNCOVERED: 0
DTLB COMMIT LATE MSHR PREFETCHES: 0
DTLB MPKI TOTAL: 0 MSHR LATE: 0 PQ LATE: 0 COMMIT LATE: 0 MISSED OPPORTUNITY: 0 UNCOVERED: 0
DTLB PREFETCHES SAME FILL-ORIGIN LEVEL: 0 DIFFERENT FILL-ORIGIN LEVEL: 0
DTLB AVERAGE MISS LATENCY: 39.005 cycles
DTLB AVERAGE MISS LATENCY LOAD: -nan cycles
DTLB AVERAGE MISS LATENCY PREFETCH: -nan cycles
DTLB AVERAGE MSHR OCCUPANCY: 0.00738538
DTLB MSHR FULL: 0
DTLB RQ	ACCESS:   42899856	FORWARD:          0	MERGED:    2731046	TO_CACHE:   40168810

STLB TOTAL     ACCESS:   20319800  HIT:   20144292  MISS:     175508  HIT %:    99.1363  MISS %:   0.863729   MPKI: 0.87754
STLB Test counter:          0
STLB LOAD TRANSLATION ACCESS:     269081  HIT:     157702  MISS:     111379  HIT %:    58.6076  MISS %:    41.3924   MPKI: 0.556895
STLB TRANSLATION FROM L1D PREFETCHER ACCESS:   20050719  HIT:   19986590  MISS:      64129  HIT %:    99.6802  MISS %:   0.319834   MPKI: 0.320645
STLB PREFETCH  REQUESTED:          0  ISSUED:          0  USEFUL:      63762  USELESS:        368
STLB USEFUL LOAD PREFETCHES:      63762 PREFETCH ISSUED TO LOWER LEVEL:          0  ACCURACY: inf
STLB TIMELY PREFETCHES:      63762 LATE PREFETCHES: 658 DROPPED PREFETCHES: 24205
STLB COMMIT LATE PREFETCHES: 0 MISSED OPPORTUNITY: 0 LATE IN PQ: 0 UNCOVERED: 0
STLB COMMIT LATE MSHR PREFETCHES: 0
STLB MPKI TOTAL: 0 MSHR LATE: 0.00329 PQ LATE: 0 COMMIT LATE: 0 MISSED OPPORTUNITY: 0 UNCOVERED: 0
STLB PREFETCHES SAME FILL-ORIGIN LEVEL: 0 DIFFERENT FILL-ORIGIN LEVEL: 0
STLB AVERAGE MISS LATENCY: 62.8378 cycles
STLB AVERAGE MISS LATENCY LOAD: -nan cycles
STLB AVERAGE MISS LATENCY PREFETCH: -nan cycles
STLB AVERAGE MSHR OCCUPANCY: 0.00596061
STLB MSHR FULL: 0
STLB RQ	ACCESS:  102299316	FORWARD:          0	MERGED:   81952242	TO_CACHE:   20347074

STLB Hit, L1D data hit: 0
STLB Hit, L2C data hit: 0
STLB Hit, LLC data hit: 0
STLB Hit, LLC data miss: 0
STLB STLB hints to L2: 0
L1D TOTAL     ACCESS:  118620757  HIT:  113274112  MISS:    5346645  HIT %:    95.4927  MISS %:    4.50734   MPKI: 26.7332
L1D Test counter:          0
L1D LOAD      ACCESS:   35770435  HIT:   32540176  MISS:    3369589  HIT %:    90.9695  MISS %:    9.03053   MPKI: 16.1513
L1D RFO       ACCESS:    5466851  HIT:    5227854  MISS:     238997  HIT %:    95.6283  MISS %:    4.37175   MPKI: 1.19498
L1D PREFETCH  ACCESS:   77383471  HIT:   75506082  MISS:    1877389  HIT %:    97.5739  MISS %:    2.42609   MPKI: 9.38695
L1D PREFETCH  REQUESTED:  226152513  ISSUED:  219287148  USEFUL:    1835017  USELESS:      42359
L1D USEFUL LOAD PREFETCHES:    1835017 PREFETCH ISSUED TO LOWER LEVEL:   23361446  ACCURACY: 7.85489
L1D TIMELY PREFETCHES:    1835017 LATE PREFETCHES: 2583 DROPPED PREFETCHES: 57131
L1D COMMIT LATE PREFETCHES: 0 MISSED OPPORTUNITY: 0 LATE IN PQ: 34461 UNCOVERED: 0
L1D COMMIT LATE MSHR PREFETCHES: 0
L1D MPKI TOTAL: 16.8479 MSHR LATE: 0.012915 PQ LATE: 0.172305 COMMIT LATE: 0 MISSED OPPORTUNITY: 0 UNCOVERED: 0
L1D PREFETCHES SAME FILL-ORIGIN LEVEL: 1879973 DIFFERENT FILL-ORIGIN LEVEL: 21481473
L1D AVERAGE MISS LATENCY: 81.3578 cycles
L1D AVERAGE MISS LATENCY LOAD: 55.9625 cycles
L1D AVERAGE MISS LATENCY PREFETCH: 111.897 cycles
L1D AVERAGE MSHR OCCUPANCY: 0.597201
L1D MSHR FULL: 0.00616268
L1D RQ	ACCESS:   48965207	FORWARD:          0	MERGED:   13025042	TO_CACHE:   35909765
L1D WQ	ACCESS:    7109411	FORWARD:      30400	MERGED:     119320	TO_CACHE:    6990091
L1D PQ	ACCESS:  117256913	FORWARD:          0	MERGED:   15226678	TO_CACHE:  102030235

L1D UNIQUE REGIONS ACCESSED: 0
L1D REGIONS CONFLICTS: 0
L1D Cross Page Prefetch Requests: 12297410
L1D Same Page Prefetch Requests: 133929810
L1D ROI Sum of L1D PQ occupancy: 1502237150
L1D PREFETCHES PUSHED FROM L2C: 0
55ecb86b564c: 1
55ecb86bcca0: 1
55ecb86b593f: 1
55ecb86b5636: 1
55ecb86b5313: 1
14e534adc646: 1
14e534ab55f4: 1
55ecb86b3ace: 1
55ecb86b3e77: 1
55ecb86b55c5: 1
55ecb86b5962: 1
14e534ab8d3b: 1
55ecb86b5352: 2
55ecb86b5347: 2
14e534ab8d7f: 2
55ecb86b3e00: 2
55ecb86b3330: 3
55ecb86b3e73: 3
14e534a7986b: 3
14e534b5324b: 3
14e534a7c3c3: 3
55ecb86b55a7: 3
55ecb86b530b: 3
55ecb86b5914: 3
55ecb86b573d: 3
55ecb86b3aee: 3
14e534a7c67a: 3
14e534b53240: 3
55ecb86b54d5: 3
14e534a42230: 3
14e534b53254: 3
55ecb86b5603: 3
55ecb86b3a8c: 3
14e534ad2143: 3
14e534a7c67e: 3
14e534a7c530: 3
55ecb86b3b10: 3
14e534b53247: 3
14e534a7c3bc: 3
14e534a7c5e5: 3
14e534a7c3cc: 3
14e534a42040: 3
14e534aac951: 3
55ecb86b5950: 3
55ecb86b54ea: 3
55ecb86b54fc: 3
55ecb86b531f: 3
55ecb86b556f: 3
14e534ab6123: 3
55ecb86b55e8: 3
55ecb86b55c0: 3
14e534ab55a7: 5
55ecb86b51b9: 5
55ecb86b5866: 6
14e534ab8d43: 6
55ecb86b50eb: 6
14e534ab8c4f: 6
55ecb86b5782: 7
55ecb86b57a1: 7
55ecb86b5797: 7
55ecb86b5789: 7
14e534ab5f10: 8
14e534adc6c3: 8
55ecb86b55fe: 9
14e534ab8971: 11
55ecb86b5054: 11
14e534ab54f8: 11
14e534ab80af: 11
14e534ab80c1: 11
14e534ab80cf: 11
14e534ab80e3: 11
14e534ab5574: 11
14e534ab5323: 11
14e534ab558f: 11
14e534ab5f73: 11
14e534ab8076: 11
14e534ab5581: 11
14e534ab8c95: 11
14e534ab8a09: 11
14e534ab8c61: 11
14e534ab8c88: 12
14e534ab899f: 12
14e534ab89a6: 12
14e534ab8c45: 12
14e534ab8c6b: 12
55ecb86b3430: 13
14e534adc97f: 13
14e534adc63e: 13
14e534ab8a27: 13
14e534ab8d1a: 14
14e534ab931c: 14
14e535451d00: 14
14e534ab8e55: 15
14e534ab8978: 15
55ecb86b35d0: 15
14e5354523f0: 15
14e534ab8961: 15
14e534adc672: 15
14e534ab898d: 15
55ecb86b36a0: 16
14e534ab58e8: 17
55ecb86b3340: 17
14e534ab807d: 19
14e5354516d0: 19
55ecb86b3690: 19
14e534ab565b: 19
14e535451b30: 20
55ecb86b52ba: 27
7ffe2e0f1d75: 27
55ecb86b509c: 29
55ecb86b54a0: 30
55ecb86b5019: 32
55ecb86b57bd: 46
55ecb86b5015: 54
55ecb86b56c0: 73
55ecb86b582f: 140
55ecb86b5900: 162
14e534adc67f: 1143
55ecb86b5838: 3437
14e534adc68a: 4780
55ecb86b5024: 4899
55ecb86b56d7: 14276
55ecb86b5020: 33752
55ecb86b5051: 36319
55ecb86b57cf: 76295
55ecb86b57fd: 78557
55ecb86b57cb: 86087
55ecb86b5063: 177636
55ecb86b580b: 733991
55ecb86b57d9: 924171
55ecb86b57e7: 1053503
L1I TOTAL     ACCESS:   42975383  HIT:   42975370  MISS:         13  HIT %:        100  MISS %: 3.02499e-05   MPKI: 6.5e-05
L1I Test counter:          0
L1I LOAD      ACCESS:   42975383  HIT:   42975370  MISS:         16  HIT %:        100  MISS %: 3.02499e-05   MPKI: 6.5e-05
L1I PREFETCH  REQUESTED:          0  ISSUED:          0  USEFUL:          0  USELESS:          0
L1I USEFUL LOAD PREFETCHES:          0 PREFETCH ISSUED TO LOWER LEVEL:          0  ACCURACY: -nan
L1I TIMELY PREFETCHES:          0 LATE PREFETCHES: 0 DROPPED PREFETCHES: 0
L1I COMMIT LATE PREFETCHES: 0 MISSED OPPORTUNITY: 0 LATE IN PQ: 0 UNCOVERED: 0
L1I COMMIT LATE MSHR PREFETCHES: 0
L1I MPKI TOTAL: 8e-05 MSHR LATE: 0 PQ LATE: 0 COMMIT LATE: 0 MISSED OPPORTUNITY: 0 UNCOVERED: 0
L1I PREFETCHES SAME FILL-ORIGIN LEVEL: 0 DIFFERENT FILL-ORIGIN LEVEL: 0
L1I AVERAGE MISS LATENCY: 203.077 cycles
L1I AVERAGE MISS LATENCY LOAD: 203.077 cycles
L1I AVERAGE MISS LATENCY PREFETCH: -nan cycles
L1I AVERAGE MSHR OCCUPANCY: 2.09422e-07
L1I MSHR FULL: 0
L1I RQ	ACCESS:   65167626	FORWARD:          0	MERGED:   22192241	TO_CACHE:   42975385

14e534adc482: 1
14e534ab8cc1: 1
14e534adc5c3: 1
14e534a7e103: 1
14e534a7e0db: 1
55ecb86b3b03: 1
55ecb86b5330: 1
55ecb86b58c4: 1
55ecb86b5900: 1
55ecb86b3cfd: 1
55ecb86b5947: 1
55ecb86b5342: 1
55ecb86b3ac1: 1
BTB TOTAL     ACCESS:   40501981  HIT:   40501627  MISS:        354  HIT %:    99.9991  MISS %: 0.000874031   MPKI: 0.00177
BTB Test counter:          0
BTB BRANCH_DIRECT_JUMP	ACCESS:      40166  HIT:      40120  MISS:         46
BTB BRANCH_INDIRECT	ACCESS:          3  HIT:          2  MISS:          1
BTB BRANCH_CONDITIONAL	ACCESS:   40461171  HIT:   40461068  MISS:        103
BTB BRANCH_DIRECT_CALL	ACCESS:        311  HIT:        267  MISS:         44
BTB BRANCH_INDIRECT_CALL	ACCESS:          9  HIT:          6  MISS:          3
BTB BRANCH_RETURN	ACCESS:        321  HIT:        164  MISS:        157
BTB BRANCH_OTHER ACCESS:          0  HIT:          0  MISS:          0

L2C TOTAL     ACCESS:   26385005  HIT:   21612964  MISS:    4772041  HIT %:    81.9138  MISS %:    18.0862   MPKI: 23.8602
L2C Test counter:          0
L2C LOAD      ACCESS:    3227687  HIT:    2267877  MISS:     959810  HIT %:    70.2632  MISS %:    29.7368   MPKI: 4.79905
L2C DATA LOAD MPKI: 4.79899
L2C INSTRUCTION LOAD MPKI: 6.5e-05
L2C RFO       ACCESS:     238996  HIT:       8035  MISS:     230961  HIT %:    3.36198  MISS %:     96.638   MPKI: 1.15481
L2C PREFETCH  ACCESS:   22057017  HIT:   18507422  MISS:    3549595  HIT %:    83.9072  MISS %:    16.0928   MPKI: 17.748
L2C DATA PREFETCH MPKI: 17.748
L2C INSTRUCTION PREFETCH MPKI: 0
L2C WRITEBACK ACCESS:     660660  HIT:     660510  MISS:        150  HIT %:    99.9773  MISS %:  0.0227046   MPKI: 0.00075
L2C LOAD TRANSLATION ACCESS:     111514  HIT:      89176  MISS:      22338  HIT %:    79.9684  MISS %:    20.0316   MPKI: 0.11169
L2C TRANSLATION FROM L1D PREFETCHER ACCESS:      89131  HIT:      79944  MISS:       9187  HIT %:    89.6927  MISS %:    10.3073   MPKI: 0.045935
L2C PREFETCH  REQUESTED:          0  ISSUED:          0  USEFUL:     687779  USELESS:    2871422
L2C USEFUL LOAD PREFETCHES:     687779 PREFETCH ISSUED TO LOWER LEVEL:    3608086  ACCURACY: 19.0622
L2C TIMELY PREFETCHES:     687779 LATE PREFETCHES: 58490 DROPPED PREFETCHES: 0
L2C COMMIT LATE PREFETCHES: 0 MISSED OPPORTUNITY: 0 LATE IN PQ: 0 UNCOVERED: 0
L2C COMMIT LATE MSHR PREFETCHES: 0
L2C MPKI TOTAL: 4.79905 MSHR LATE: 0.29245 PQ LATE: 0 COMMIT LATE: 0 MISSED OPPORTUNITY: 0 UNCOVERED: 0
L2C PREFETCHES SAME FILL-ORIGIN LEVEL: 2482905 DIFFERENT FILL-ORIGIN LEVEL: 0
L2C AVERAGE MISS LATENCY: 153.451 cycles
L2C AVERAGE MISS LATENCY LOAD: 138.281 cycles
L2C AVERAGE MISS LATENCY PREFETCH: 155.659 cycles
L2C AVERAGE MSHR OCCUPANCY: 1.28072
L2C MSHR FULL: 2.72678e-06
L2C RQ	ACCESS:    3667330	FORWARD:          0	MERGED:          0	TO_CACHE:    3667328
L2C WQ	ACCESS:     660660	FORWARD:          2	MERGED:          0	TO_CACHE:     660660
L2C PQ	ACCESS:   23361439	FORWARD:          0	MERGED:       1081	TO_CACHE:   23360358

L2C Instructions Evicting Data 13
L2C Translations Evicting Data 31311
L2C Data Evicting Data 4708941
L2C Instructions Evicting Instructions 0
L2C Translations Evicting Instructions 0
L2C Data Evicting Instructions 16
L2C Instructions Evicting Translations 0
L2C Translations Evicting Translations 214
L2C Data Evicting Translations 31396
L2C Dense regions hint from L2: 0
14e534adc482: 1
55ecb86b58c4: 1
14e534adc5c3: 1
14e534a7e103: 1
55ecb86b5962: 1
55ecb86b5342: 1
55ecb86b5330: 1
55ecb86b3e77: 1
14e534a7e0db: 1
14e534ab8d3b: 1
55ecb86b5947: 1
55ecb86b3ac1: 1
55ecb86b3b03: 1
55ecb86b5352: 1
55ecb86b3cfd: 1
55ecb86b55c5: 1
55ecb86bcca0: 1
55ecb86b593f: 1
14e534ab8cc1: 1
55ecb86b3ace: 1
14e534ab8d7f: 2
55ecb86b530b: 2
14e534ab5f10: 2
14e534ab55a7: 2
55ecb86b3e00: 2
14e534a42230: 3
14e534ab5581: 3
55ecb86b5950: 3
14e534ad2143: 3
55ecb86b3aee: 3
14e534a7c67a: 3
55ecb86b3330: 3
14e534ab8c4f: 3
14e534aac951: 3
55ecb86b5914: 3
55ecb86b3e73: 3
55ecb86b54fc: 3
14e534a42040: 3
14e534a7c3c3: 3
14e534a7c5e5: 3
14e534a7c3bc: 3
14e534b53254: 3
14e534a7c530: 3
14e534a7c67e: 3
55ecb86b3a8c: 3
14e534a7986b: 3
14e534b53247: 3
55ecb86b3b10: 3
55ecb86b54d5: 3
14e534b53240: 3
55ecb86b50eb: 3
14e534b5324b: 3
14e534a7c3cc: 3
55ecb86b54ea: 3
14e534ab6123: 3
55ecb86b55c0: 3
55ecb86b55fe: 4
14e534ab8d43: 4
14e534ab80af: 5
14e534ab80c1: 5
14e534ab80cf: 5
14e534ab80e3: 5
14e534ab5574: 5
14e534ab5323: 5
14e534ab558f: 5
14e534ab5f73: 5
14e534ab54f8: 5
55ecb86b5015: 5
14e534ab8076: 5
55ecb86b5782: 5
14e534ab8971: 6
55ecb86b509c: 6
55ecb86b3340: 6
14e534ab8c6b: 6
55ecb86b57cb: 6
55ecb86b5866: 6
14e534ab899f: 6
55ecb86b5054: 7
55ecb86b57a1: 7
14e534ab8a09: 7
14e534ab8c95: 7
14e534ab8c88: 7
14e534ab8e55: 7
14e534ab8a27: 7
14e534ab8c45: 7
55ecb86b36a0: 7
14e534adc63e: 7
14e534ab8c61: 7
14e534ab89a6: 7
55ecb86b5019: 8
55ecb86b582f: 8
14e534adc67f: 9
14e535451b30: 9
14e534ab8d1a: 9
14e534ab807d: 9
14e534ab565b: 9
14e5354516d0: 9
14e534ab58e8: 10
55ecb86b3430: 10
14e534ab898d: 11
14e534ab8978: 12
55ecb86b3690: 12
14e534adc672: 12
14e535451d00: 13
14e534ab8961: 13
14e5354523f0: 13
55ecb86b35d0: 13
14e534ab931c: 13
55ecb86b56c0: 13
7ffe2e0f1d75: 16
55ecb86b57cf: 20
55ecb86b52ba: 22
55ecb86b54a0: 27
55ecb86b57bd: 46
55ecb86b5900: 59
55ecb86b5838: 567
14e534adc68a: 1282
55ecb86b56d7: 1492
55ecb86b5024: 3504
55ecb86b57fd: 20644
55ecb86b5020: 24240
55ecb86b5051: 36222
55ecb86b580b: 70473
55ecb86b5063: 151169
55ecb86b57e7: 156003
55ecb86b57d9: 493492
PSCL5 TOTAL     ACCESS:     199745  HIT:     199745  MISS:          0  HIT %:        100  MISS %:          0   MPKI: 0
PSCL5 Test counter:          0
PSCL5 LOAD TRANSLATION ACCESS:     110753  HIT:     110753  MISS:          0  HIT %:        100  MISS %:          0   MPKI: 0
PSCL5 TRANSLATION FROM L1D PREFETCHER ACCESS:      88992  HIT:      88992  MISS:          0  HIT %:        100  MISS %:          0   MPKI: 0
PSCL5 PREFETCH  REQUESTED:          0  ISSUED:          0  USEFUL:          0  USELESS:          0
PSCL5 USEFUL LOAD PREFETCHES:          0 PREFETCH ISSUED TO LOWER LEVEL:          0  ACCURACY: -nan
PSCL5 TIMELY PREFETCHES:          0 LATE PREFETCHES: 0 DROPPED PREFETCHES: 0
PSCL5 COMMIT LATE PREFETCHES: 0 MISSED OPPORTUNITY: 0 LATE IN PQ: 0 UNCOVERED: 0
PSCL5 COMMIT LATE MSHR PREFETCHES: 0
PSCL5 MPKI TOTAL: 0 MSHR LATE: 0 PQ LATE: 0 COMMIT LATE: 0 MISSED OPPORTUNITY: 0 UNCOVERED: 0
PSCL5 PREFETCHES SAME FILL-ORIGIN LEVEL: 0 DIFFERENT FILL-ORIGIN LEVEL: 0

PSCL4 TOTAL     ACCESS:     199745  HIT:     199745  MISS:          0  HIT %:        100  MISS %:          0   MPKI: 0
PSCL4 Test counter:          0
PSCL4 LOAD TRANSLATION ACCESS:     110753  HIT:     110753  MISS:          0  HIT %:        100  MISS %:          0   MPKI: 0
PSCL4 TRANSLATION FROM L1D PREFETCHER ACCESS:      88992  HIT:      88992  MISS:          0  HIT %:        100  MISS %:          0   MPKI: 0
PSCL4 PREFETCH  REQUESTED:          0  ISSUED:          0  USEFUL:          0  USELESS:          0
PSCL4 USEFUL LOAD PREFETCHES:          0 PREFETCH ISSUED TO LOWER LEVEL:          0  ACCURACY: -nan
PSCL4 TIMELY PREFETCHES:          0 LATE PREFETCHES: 0 DROPPED PREFETCHES: 0
PSCL4 COMMIT LATE PREFETCHES: 0 MISSED OPPORTUNITY: 0 LATE IN PQ: 0 UNCOVERED: 0
PSCL4 COMMIT LATE MSHR PREFETCHES: 0
PSCL4 MPKI TOTAL: 0 MSHR LATE: 0 PQ LATE: 0 COMMIT LATE: 0 MISSED OPPORTUNITY: 0 UNCOVERED: 0
PSCL4 PREFETCHES SAME FILL-ORIGIN LEVEL: 0 DIFFERENT FILL-ORIGIN LEVEL: 0

PSCL3 TOTAL     ACCESS:     199745  HIT:     199745  MISS:          0  HIT %:        100  MISS %:          0   MPKI: 0
PSCL3 Test counter:          0
PSCL3 LOAD TRANSLATION ACCESS:     110753  HIT:     110753  MISS:          0  HIT %:        100  MISS %:          0   MPKI: 0
PSCL3 TRANSLATION FROM L1D PREFETCHER ACCESS:      88992  HIT:      88992  MISS:          0  HIT %:        100  MISS %:          0   MPKI: 0
PSCL3 PREFETCH  REQUESTED:          0  ISSUED:          0  USEFUL:          0  USELESS:          0
PSCL3 USEFUL LOAD PREFETCHES:          0 PREFETCH ISSUED TO LOWER LEVEL:          0  ACCURACY: -nan
PSCL3 TIMELY PREFETCHES:          0 LATE PREFETCHES: 0 DROPPED PREFETCHES: 0
PSCL3 COMMIT LATE PREFETCHES: 0 MISSED OPPORTUNITY: 0 LATE IN PQ: 0 UNCOVERED: 0
PSCL3 COMMIT LATE MSHR PREFETCHES: 0
PSCL3 MPKI TOTAL: 0 MSHR LATE: 0 PQ LATE: 0 COMMIT LATE: 0 MISSED OPPORTUNITY: 0 UNCOVERED: 0
PSCL3 PREFETCHES SAME FILL-ORIGIN LEVEL: 0 DIFFERENT FILL-ORIGIN LEVEL: 0

PSCL2 TOTAL     ACCESS:     199741  HIT:     198845  MISS:        896  HIT %:    99.5514  MISS %:   0.448581   MPKI: 0.00448
PSCL2 Test counter:          0
PSCL2 LOAD TRANSLATION ACCESS:     110888  HIT:     109992  MISS:        896  HIT %:     99.192  MISS %:   0.808023   MPKI: 0.00448
PSCL2 TRANSLATION FROM L1D PREFETCHER ACCESS:      88853  HIT:      88853  MISS:          0  HIT %:        100  MISS %:          0   MPKI: 0
PSCL2 PREFETCH  REQUESTED:          0  ISSUED:          0  USEFUL:          0  USELESS:          0
PSCL2 USEFUL LOAD PREFETCHES:          0 PREFETCH ISSUED TO LOWER LEVEL:          0  ACCURACY: -nan
PSCL2 TIMELY PREFETCHES:          0 LATE PREFETCHES: 0 DROPPED PREFETCHES: 0
PSCL2 COMMIT LATE PREFETCHES: 0 MISSED OPPORTUNITY: 0 LATE IN PQ: 0 UNCOVERED: 0
PSCL2 COMMIT LATE MSHR PREFETCHES: 0
PSCL2 MPKI TOTAL: 0 MSHR LATE: 0 PQ LATE: 0 COMMIT LATE: 0 MISSED OPPORTUNITY: 0 UNCOVERED: 0
PSCL2 PREFETCHES SAME FILL-ORIGIN LEVEL: 0 DIFFERENT FILL-ORIGIN LEVEL: 0

LLC TOTAL     ACCESS:    5400424  HIT:     879427  MISS:    4520997  HIT %:    16.2844  MISS %:    83.7156   MPKI: 22.605
LLC Test counter:          0
LLC LOAD      ACCESS:     901319  HIT:     229261  MISS:     672058  HIT %:    25.4362  MISS %:    74.5638   MPKI: 3.36029
LLC RFO       ACCESS:     230960  HIT:       6139  MISS:     224821  HIT %:    2.65804  MISS %:     97.342   MPKI: 1.1241
LLC PREFETCH  ACCESS:    3608085  HIT:      18045  MISS:    3590040  HIT %:   0.500127  MISS %:    99.4999   MPKI: 17.9502
LLC WRITEBACK ACCESS:     628535  HIT:     624878  MISS:       3657  HIT %:    99.4182  MISS %:   0.581829   MPKI: 0.018285
LLC LOAD TRANSLATION ACCESS:      22338  HIT:        724  MISS:      21614  HIT %:    3.24111  MISS %:    96.7589   MPKI: 0.10807
LLC TRANSLATION FROM L1D PREFETCHER ACCESS:       9187  HIT:        380  MISS:       8807  HIT %:    4.13628  MISS %:    95.8637   MPKI: 0.044035
LLC PREFETCH  REQUESTED:          0  ISSUED:          0  USEFUL:       8355  USELESS:    3589222
LLC USEFUL LOAD PREFETCHES:       8355 PREFETCH ISSUED TO LOWER LEVEL:    3590041  ACCURACY: 0.232727
LLC TIMELY PREFETCHES:       8355 LATE PREFETCHES: 0 DROPPED PREFETCHES: 0
LLC COMMIT LATE PREFETCHES: 0 MISSED OPPORTUNITY: 0 LATE IN PQ: 0 UNCOVERED: 0
LLC COMMIT LATE MSHR PREFETCHES: 0
LLC MPKI TOTAL: 3.36029 MSHR LATE: 0 PQ LATE: 0 COMMIT LATE: 0 MISSED OPPORTUNITY: 0 UNCOVERED: 0
LLC PREFETCHES SAME FILL-ORIGIN LEVEL: 0 DIFFERENT FILL-ORIGIN LEVEL: 0
LLC AVERAGE MISS LATENCY: 131.273 cycles
LLC AVERAGE MISS LATENCY LOAD: 147.464 cycles
LLC AVERAGE MISS LATENCY PREFETCH: 126.806 cycles
LLC AVERAGE MSHR OCCUPANCY: 1.14674
LLC MSHR FULL: 0
LLC RQ	ACCESS:    1163806	FORWARD:          0	MERGED:          0	TO_CACHE:    1163804
LLC WQ	ACCESS:     628535	FORWARD:          2	MERGED:          0	TO_CACHE:     628535
LLC PQ	ACCESS:    3608086	FORWARD:          0	MERGED:          0	TO_CACHE:    3608086

LLC Dense regions hint to LLC: 0
14e534a7e0db: 1
55ecb86b582f: 1
55ecb86b3cfd: 1
55ecb86b5352: 1
55ecb86b3b03: 1
55ecb86b3ac1: 1
55ecb86b5947: 1
14e534ab8d3b: 1
55ecb86b36a0: 1
14e534adc482: 1
55ecb86b3e77: 1
55ecb86b5342: 1
55ecb86b5962: 1
55ecb86b58c4: 1
14e534adc5c3: 1
14e534a7e103: 1
55ecb86b5330: 1
55ecb86bcca0: 1
55ecb86b593f: 1
14e534ab8cc1: 1
55ecb86b55c0: 1
55ecb86b3ace: 1
55ecb86b509c: 1
14e534adc63e: 2
55ecb86b5054: 2
55ecb86b530b: 2
14e534ab5f10: 2
14e534ab55a7: 2
55ecb86b3e00: 2
14e534ab8d7f: 2
55ecb86b5015: 2
14e534a7c5e5: 3
14e534a7c67e: 3
55ecb86b3e73: 3
55ecb86b56c0: 3
14e534a7c530: 3
14e534a42040: 3
14e534aac951: 3
14e534a42230: 3
14e534a7c67a: 3
55ecb86b3aee: 3
14e534ad2143: 3
14e534a7c3cc: 3
14e534a7c3c3: 3
55ecb86b5950: 3
55ecb86b54d5: 3
14e534ab5581: 3
14e534a7c3bc: 3
55ecb86b3330: 3
14e534ab8c4f: 3
14e534b5324b: 3
14e534b53254: 3
14e534a7986b: 3
55ecb86b3a8c: 3
14e534b53240: 3
55ecb86b50eb: 3
55ecb86b3b10: 3
14e534b53247: 3
55ecb86b54fc: 3
14e534ab8d43: 3
55ecb86b5914: 3
55ecb86b54ea: 3
14e534ab6123: 3
55ecb86b55fe: 3
55ecb86b5019: 3
55ecb86b57a1: 4
14e534ab8c6b: 4
55ecb86b5782: 4
14e534ab80af: 5
14e534ab5f73: 5
14e534ab558f: 5
14e534ab5323: 5
14e534ab5574: 5
14e534ab80e3: 5
14e534ab80cf: 5
14e534ab80c1: 5
14e534ab8076: 5
14e534ab54f8: 5
55ecb86b3340: 6
14e534ab89a6: 6
14e534ab8c61: 6
14e534ab8a09: 6
14e534ab8e55: 6
14e534ab8c88: 6
14e534ab8c95: 6
55ecb86b5866: 6
55ecb86b57cb: 6
14e534ab8c45: 6
14e534ab8a27: 6
14e534ab8971: 6
14e534ab899f: 6
14e534adc672: 8
14e534ab8d1a: 8
14e534ab565b: 9
14e5354516d0: 9
14e535451b30: 9
55ecb86b3430: 9
14e534ab58e8: 9
14e534ab807d: 9
14e534ab898d: 10
14e534ab8961: 12
14e534ab931c: 12
14e5354523f0: 12
14e535451d00: 12
55ecb86b35d0: 12
14e534ab8978: 12
55ecb86b3690: 12
7ffe2e0f1d75: 15
55ecb86b57cf: 18
55ecb86b52ba: 22
55ecb86b54a0: 27
55ecb86b57bd: 35
55ecb86b5900: 49
14e534adc68a: 56
55ecb86b5838: 490
55ecb86b56d7: 732
55ecb86b5024: 3362
55ecb86b580b: 14173
55ecb86b57fd: 15680
55ecb86b5020: 23299
55ecb86b57e7: 31715
55ecb86b5051: 36078
55ecb86b5063: 100993
55ecb86b57d9: 444869

RAW hits: 182944
Loads Generated: 49148151
Loads sent to L1D: 48965207
Stores Generated: 7109412
Stores sent to L1D: 7109411
Major fault: 0 Minor fault: 27368
Allocated PAGES: 27368
Total Load insts: 61476796
Total Non-spec loads: 15095169
Percentage of speculative loads: 75.4457
L1D response latency: 56.0073 cycles
Load retirement latency: 82.4571 cycles

LATENCY_FILL: 55.0653 3227546

DRAM Statistics
 CHANNEL 0
 RQ ROW_BUFFER_HIT:    2219130  ROW_BUFFER_MISS:    2298195
 DBUS_CONGESTED:       5737
 WQ ROW_BUFFER_HIT:     236216  ROW_BUFFER_MISS:     373049  FULL:          0

 AVG_CONGESTED_CYCLE: 4
 All warmup complete: 2
Channel 0 Bank busy for read cycles: 0
Channel 0 Bank busy for write cycles: 0
Channel 0
Rank 0
0banks busy for read cycles: 263767305
0banks busy for write cycles: 233540
1banks busy for read cycles: 177522597
1banks busy for write cycles: 36672435
2banks busy for read cycles: 70935445
2banks busy for write cycles: 10504982
3banks busy for read cycles: 21662389
3banks busy for write cycles: 3919991
4banks busy for read cycles: 8162498
4banks busy for write cycles: 2019713
5banks busy for read cycles: 3390809
5banks busy for write cycles: 1348217
6banks busy for read cycles: 1606984
6banks busy for write cycles: 1137834
7banks busy for read cycles: 868067
7banks busy for write cycles: 1440925
8banks busy for read cycles: 776168
8banks busy for write cycles: 8492554

CPU 0 Branch Prediction Accuracy: 86.5484% MPKI: 28.7876 Average ROB Occupancy at Mispredict: 8.57312
Branch types
NOT_BRANCH: 157198344 78.5992%
BRANCH_DIRECT_JUMP: 40166 0.020083%
BRANCH_INDIRECT: 3 1.5e-06%
BRANCH_CONDITIONAL: 42760841 21.3804%
BRANCH_DIRECT_CALL: 311 0.0001555%
BRANCH_INDIRECT_CALL: 9 4.5e-06%
BRANCH_RETURN: 321 0.0001605%
BRANCH_OTHER: 0 0%

DRAM PAGES: 1048576
Allocated PAGES: 27368
