
*** ChampSim Multicore Out-of-Order Simulator ***

Warmup Instructions: 50000000
Simulation Instructions: 200000000
Number of CPUs: 1
LLC sets: 2048
LLC ways: 16
Secure Berti: OFF
Berti: OFF
Berti Fill: OFF
On commit prefetching: OFF
L2 LLC Bypass speculative loads: OFF
Off-chip DRAM Size: 4096 MB Channels: 1 Width: 64-bit Data Rate: 6400 MT/s
CPU 0 runs /home/sumon/secure_berti/Berti_Baseline/../../traces/gap/pr-10.trace.gz
.gz
BTB has LRU replacement policy
ITLB has LRU replacement policy
DTLB has LRU replacement policy
STLB has LRU replacement policy
L1I has LRU replacement policy
History Sets: 8
History Ways: 16
BERTI Size: 16
BERTI Stride Size: 16
L1D has LRU replacement policy
L2C has LRU replacement policy
LLC has LRU replacement policy
Heartbeat CPU 0 instructions: 10000002 cycles: 3333445 heartbeat IPC: 2.9999 cumulative IPC: 2.9999 (Simulation time: 0 hr 0 min 12 sec) 
Heartbeat CPU 0 instructions: 20000000 cycles: 9916751 heartbeat IPC: 1.51899 cumulative IPC: 2.01679 (Simulation time: 0 hr 0 min 40 sec) 
Heartbeat CPU 0 instructions: 30000003 cycles: 17082536 heartbeat IPC: 1.39552 cumulative IPC: 1.75618 (Simulation time: 0 hr 1 min 23 sec) 
Heartbeat CPU 0 instructions: 40000001 cycles: 24235344 heartbeat IPC: 1.39805 cumulative IPC: 1.65048 (Simulation time: 0 hr 2 min 10 sec) 
Heartbeat CPU 0 instructions: 50000000 cycles: 31347737 heartbeat IPC: 1.406 cumulative IPC: 1.59501 (Simulation time: 0 hr 2 min 42 sec) 

Warmup complete CPU 0 instructions: 50000002 cycles: 31347738 (Simulation time: 0 hr 2 min 42 sec) 

Heartbeat CPU 0 instructions: 60000000 cycles: 220024648 heartbeat IPC: 0.0530007 cumulative IPC: 0.0530006 (Simulation time: 0 hr 4 min 38 sec) 
Heartbeat CPU 0 instructions: 70000000 cycles: 406391001 heartbeat IPC: 0.0536578 cumulative IPC: 0.0533272 (Simulation time: 0 hr 6 min 31 sec) 
Heartbeat CPU 0 instructions: 80000000 cycles: 591324390 heartbeat IPC: 0.0540735 cumulative IPC: 0.0535737 (Simulation time: 0 hr 8 min 24 sec) 
Heartbeat CPU 0 instructions: 90000000 cycles: 779253741 heartbeat IPC: 0.0532115 cumulative IPC: 0.0534827 (Simulation time: 0 hr 11 min 44 sec) 
Heartbeat CPU 0 instructions: 100000002 cycles: 968456880 heartbeat IPC: 0.0528533 cumulative IPC: 0.0533556 (Simulation time: 0 hr 14 min 12 sec) 
Heartbeat CPU 0 instructions: 110000000 cycles: 1156222913 heartbeat IPC: 0.0532578 cumulative IPC: 0.0533393 (Simulation time: 0 hr 16 min 2 sec) 
Heartbeat CPU 0 instructions: 120000000 cycles: 1343195458 heartbeat IPC: 0.0534838 cumulative IPC: 0.0533599 (Simulation time: 0 hr 17 min 49 sec) 
Heartbeat CPU 0 instructions: 130000001 cycles: 1528083746 heartbeat IPC: 0.0540867 cumulative IPC: 0.0534496 (Simulation time: 0 hr 19 min 36 sec) 
Heartbeat CPU 0 instructions: 140000000 cycles: 1712226304 heartbeat IPC: 0.0543057 cumulative IPC: 0.0535434 (Simulation time: 0 hr 21 min 21 sec) 
Heartbeat CPU 0 instructions: 150000000 cycles: 1900752387 heartbeat IPC: 0.0530431 cumulative IPC: 0.053493 (Simulation time: 0 hr 23 min 7 sec) 
Heartbeat CPU 0 instructions: 160000000 cycles: 2088058589 heartbeat IPC: 0.0533885 cumulative IPC: 0.0534835 (Simulation time: 0 hr 24 min 53 sec) 
Heartbeat CPU 0 instructions: 170000001 cycles: 2275586903 heartbeat IPC: 0.0533253 cumulative IPC: 0.0534702 (Simulation time: 0 hr 26 min 38 sec) 
Heartbeat CPU 0 instructions: 180000001 cycles: 2464522339 heartbeat IPC: 0.0529281 cumulative IPC: 0.0534281 (Simulation time: 0 hr 28 min 25 sec) 
Heartbeat CPU 0 instructions: 190000001 cycles: 2601132882 heartbeat IPC: 0.0732008 cumulative IPC: 0.0544793 (Simulation time: 0 hr 29 min 47 sec) 
Heartbeat CPU 0 instructions: 200000003 cycles: 2642963034 heartbeat IPC: 0.239062 cumulative IPC: 0.0574357 (Simulation time: 0 hr 30 min 23 sec) 
Heartbeat CPU 0 instructions: 210000000 cycles: 2830694163 heartbeat IPC: 0.0532677 cumulative IPC: 0.0571562 (Simulation time: 0 hr 32 min 9 sec) 
Heartbeat CPU 0 instructions: 220000000 cycles: 3016991882 heartbeat IPC: 0.0536775 cumulative IPC: 0.0569391 (Simulation time: 0 hr 33 min 55 sec) 
Heartbeat CPU 0 instructions: 230000001 cycles: 3204859734 heartbeat IPC: 0.0532289 cumulative IPC: 0.0567195 (Simulation time: 0 hr 35 min 41 sec) 
Heartbeat CPU 0 instructions: 240000001 cycles: 3389472765 heartbeat IPC: 0.0541674 cumulative IPC: 0.0565792 (Simulation time: 0 hr 37 min 27 sec) 
Heartbeat CPU 0 instructions: 250000001 cycles: 3576882349 heartbeat IPC: 0.0533591 cumulative IPC: 0.056409 (Simulation time: 0 hr 39 min 14 sec) 
Finished CPU 0 instructions: 200000000 cycles: 3545534612 cumulative IPC: 0.056409 (Simulation time: 0 hr 39 min 14 sec) 

ChampSim completed all CPUs

Region of Interest Statistics

CPU 0 cumulative IPC: 0.056409 instructions: 200000000 cycles: 3545534612
ITLB TOTAL     ACCESS:   58951379  HIT:   58951379  MISS:          0  HIT %:        100  MISS %:          0   MPKI: 0
ITLB Test counter:          0
ITLB LOAD TRANSLATION ACCESS:   58951379  HIT:   58951379  MISS:          0  HIT %:        100  MISS %:          0   MPKI: 0
ITLB PREFETCH  REQUESTED:          0  ISSUED:          0  USEFUL:          0  USELESS:          0
ITLB USEFUL LOAD PREFETCHES:          0 PREFETCH ISSUED TO LOWER LEVEL:          0  ACCURACY: -nan
ITLB TIMELY PREFETCHES:          0 LATE PREFETCHES: 0 DROPPED PREFETCHES: 0
ITLB COMMIT LATE PREFETCHES: 0 MISSED OPPORTUNITY: 0 LATE IN PQ: 0 UNCOVERED: 0
ITLB COMMIT LATE MSHR PREFETCHES: 0
ITLB MPKI TOTAL: 0 MSHR LATE: 0 PQ LATE: 0 COMMIT LATE: 0 MISSED OPPORTUNITY: 0 UNCOVERED: 0
ITLB PREFETCHES SAME FILL-ORIGIN LEVEL: 0 DIFFERENT FILL-ORIGIN LEVEL: 0
ITLB AVERAGE MISS LATENCY: -nan cycles
ITLB AVERAGE MISS LATENCY LOAD: -nan cycles
ITLB AVERAGE MISS LATENCY PREFETCH: -nan cycles
ITLB AVERAGE MSHR OCCUPANCY: 0
ITLB MSHR FULL: 0
ITLB RQ	ACCESS:   60076311	FORWARD:          0	MERGED:    1124932	TO_CACHE:   58951379

DTLB TOTAL     ACCESS:   67159180  HIT:   44204521  MISS:   22954659  HIT %:    65.8205  MISS %:    34.1795   MPKI: 114.773
DTLB Test counter:          0
DTLB LOAD TRANSLATION ACCESS:   67159180  HIT:   44204521  MISS:   22954659  HIT %:    65.8205  MISS %:    34.1795   MPKI: 114.773
DTLB PREFETCH  REQUESTED:          0  ISSUED:          0  USEFUL:          0  USELESS:          0
DTLB USEFUL LOAD PREFETCHES:          0 PREFETCH ISSUED TO LOWER LEVEL:          0  ACCURACY: -nan
DTLB TIMELY PREFETCHES:          0 LATE PREFETCHES: 0 DROPPED PREFETCHES: 0
DTLB COMMIT LATE PREFETCHES: 0 MISSED OPPORTUNITY: 0 LATE IN PQ: 0 UNCOVERED: 0
DTLB COMMIT LATE MSHR PREFETCHES: 0
DTLB MPKI TOTAL: 0 MSHR LATE: 0 PQ LATE: 0 COMMIT LATE: 0 MISSED OPPORTUNITY: 0 UNCOVERED: 0
DTLB PREFETCHES SAME FILL-ORIGIN LEVEL: 0 DIFFERENT FILL-ORIGIN LEVEL: 0
DTLB AVERAGE MISS LATENCY: 9.12257 cycles
DTLB AVERAGE MISS LATENCY LOAD: -nan cycles
DTLB AVERAGE MISS LATENCY PREFETCH: -nan cycles
DTLB AVERAGE MSHR OCCUPANCY: 0.200591
DTLB MSHR FULL: 0
DTLB RQ	ACCESS:   67839096	FORWARD:          0	MERGED:     673248	TO_CACHE:   67165848

STLB TOTAL     ACCESS:   50907771  HIT:   50866940  MISS:      40831  HIT %:    99.9198  MISS %:  0.0802058   MPKI: 0.204155
STLB Test counter:          0
STLB LOAD TRANSLATION ACCESS:   22954659  HIT:   22929209  MISS:      25450  HIT %:    99.8891  MISS %:   0.110871   MPKI: 0.12725
STLB TRANSLATION FROM L1D PREFETCHER ACCESS:   27953112  HIT:   27937731  MISS:      15381  HIT %:     99.945  MISS %:  0.0550243   MPKI: 0.076905
STLB PREFETCH  REQUESTED:          0  ISSUED:          0  USEFUL:      15381  USELESS:          0
STLB USEFUL LOAD PREFETCHES:      15381 PREFETCH ISSUED TO LOWER LEVEL:          0  ACCURACY: inf
STLB TIMELY PREFETCHES:      15381 LATE PREFETCHES: 4563 DROPPED PREFETCHES: 2935636
STLB COMMIT LATE PREFETCHES: 0 MISSED OPPORTUNITY: 0 LATE IN PQ: 0 UNCOVERED: 0
STLB COMMIT LATE MSHR PREFETCHES: 0
STLB MPKI TOTAL: 0 MSHR LATE: 0.022815 PQ LATE: 0 COMMIT LATE: 0 MISSED OPPORTUNITY: 0 UNCOVERED: 0
STLB PREFETCHES SAME FILL-ORIGIN LEVEL: 0 DIFFERENT FILL-ORIGIN LEVEL: 0
STLB AVERAGE MISS LATENCY: 83.2123 cycles
STLB AVERAGE MISS LATENCY LOAD: -nan cycles
STLB AVERAGE MISS LATENCY PREFETCH: -nan cycles
STLB AVERAGE MSHR OCCUPANCY: 0.0103151
STLB MSHR FULL: 0
STLB RQ	ACCESS:  218264759	FORWARD:          0	MERGED:  164364263	TO_CACHE:   53900496

STLB Hit, L1D data hit: 0
STLB Hit, L2C data hit: 0
STLB Hit, LLC data hit: 0
STLB Hit, LLC data miss: 0
STLB STLB hints to L2: 0
L1D TOTAL     ACCESS:  220095760  HIT:  185445997  MISS:   34649763  HIT %:     84.257  MISS %:     15.743   MPKI: 173.249
L1D Test counter:          0
L1D LOAD      ACCESS:   64482260  HIT:   32466754  MISS:   32072667  HIT %:    50.3499  MISS %:    49.6501   MPKI: 160.078
L1D RFO       ACCESS:    2580949  HIT:    2515390  MISS:      65559  HIT %:    97.4599  MISS %:    2.54011   MPKI: 0.327795
L1D PREFETCH  ACCESS:  153032551  HIT:  150463853  MISS:    2568698  HIT %:    98.3215  MISS %:    1.67853   MPKI: 12.8435
L1D PREFETCH  REQUESTED:  404023280  ISSUED:  402876029  USEFUL:    2482662  USELESS:      86052
L1D USEFUL LOAD PREFETCHES:    2482662 PREFETCH ISSUED TO LOWER LEVEL:   33020139  ACCURACY: 7.51863
L1D TIMELY PREFETCHES:    2482662 LATE PREFETCHES: 19428 DROPPED PREFETCHES: 8939892
L1D COMMIT LATE PREFETCHES: 0 MISSED OPPORTUNITY: 0 LATE IN PQ: 1459 UNCOVERED: 0
L1D COMMIT LATE MSHR PREFETCHES: 0
L1D MPKI TOTAL: 160.363 MSHR LATE: 0.09714 PQ LATE: 0.007295 COMMIT LATE: 0 MISSED OPPORTUNITY: 0 UNCOVERED: 0
L1D PREFETCHES SAME FILL-ORIGIN LEVEL: 2588126 DIFFERENT FILL-ORIGIN LEVEL: 30432013
L1D AVERAGE MISS LATENCY: 89.6081 cycles
L1D AVERAGE MISS LATENCY LOAD: 86.8232 cycles
L1D AVERAGE MISS LATENCY PREFETCH: 121.387 cycles
L1D AVERAGE MSHR OCCUPANCY: 0.505986
L1D MSHR FULL: 3.09888e-08
L1D RQ	ACCESS:   77353833	FORWARD:          0	MERGED:   12814403	TO_CACHE:   64539421
L1D WQ	ACCESS:    3299680	FORWARD:          9	MERGED:          5	TO_CACHE:    3299675
L1D PQ	ACCESS:  207565929	FORWARD:          0	MERGED:   12255829	TO_CACHE:  195310100

L1D UNIQUE REGIONS ACCESSED: 0
L1D REGIONS CONFLICTS: 0
L1D Cross Page Prefetch Requests: 23413399
L1D Same Page Prefetch Requests: 246105583
L1D ROI Sum of L1D PQ occupancy: 3017131173
L1D PREFETCHES PUSHED FROM L2C: 0
14b38703b67e: 1
14b38703886b: 1
14b38703b3cc: 1
14b387001040: 1
14b387091143: 1
55fa52a1ffe0: 1
14b38703b530: 1
14b38706b951: 1
14b387001230: 1
14b38703f1d1: 1
14b38703def2: 1
55fa52a2002d: 1
14b38703c461: 1
55fa52a1ffee: 1
14b38703b67a: 1
14b38703dee7: 1
14b387041760: 1
14b38703ecd6: 1
14b38709b578: 1
14b38703f1c6: 1
14b38711226f: 1
14b38703ecdd: 1
14b387112240: 1
55fa52a2003f: 1
55fa52a2000d: 1
14b3871100b0: 1
14b38703f6d6: 1
14b387091646: 1
14b387112264: 1
14b387112254: 1
14b38703f6e4: 1
14b387112247: 1
55fa52a1e510: 1
14b38703b3bc: 1
14b38703b5e5: 1
14b38703b3c3: 1
14b38711224b: 1
14b387112230: 1
55fa52a20000: 3
14b3870404f2: 5
55fa52a20075: 7461
55fa52a20054: 7479
55fa52a20050: 7556
55fa52a20093: 7930
55fa52a20060: 28034
55fa52a2007b: 36980
55fa52a2006a: 31920020
L1I TOTAL     ACCESS:   60076310  HIT:   60076287  MISS:         23  HIT %:        100  MISS %: 3.82846e-05   MPKI: 0.000115
L1I Test counter:          0
L1I LOAD      ACCESS:   60076310  HIT:   60076287  MISS:         24  HIT %:        100  MISS %: 3.82846e-05   MPKI: 0.000115
L1I PREFETCH  REQUESTED:          0  ISSUED:          0  USEFUL:          0  USELESS:          0
L1I USEFUL LOAD PREFETCHES:          0 PREFETCH ISSUED TO LOWER LEVEL:          0  ACCURACY: -nan
L1I TIMELY PREFETCHES:          0 LATE PREFETCHES: 0 DROPPED PREFETCHES: 0
L1I COMMIT LATE PREFETCHES: 0 MISSED OPPORTUNITY: 0 LATE IN PQ: 0 UNCOVERED: 0
L1I COMMIT LATE MSHR PREFETCHES: 0
L1I MPKI TOTAL: 0.00012 MSHR LATE: 0 PQ LATE: 0 COMMIT LATE: 0 MISSED OPPORTUNITY: 0 UNCOVERED: 0
L1I PREFETCHES SAME FILL-ORIGIN LEVEL: 0 DIFFERENT FILL-ORIGIN LEVEL: 0
L1I AVERAGE MISS LATENCY: 166.174 cycles
L1I AVERAGE MISS LATENCY LOAD: 166.174 cycles
L1I AVERAGE MISS LATENCY PREFETCH: -nan cycles
L1I AVERAGE MSHR OCCUPANCY: 1.33164e-07
L1I MSHR FULL: 0
L1I RQ	ACCESS:   71163148	FORWARD:          0	MERGED:   11086837	TO_CACHE:   60076311

14b3870403df: 1
14b3870413c4: 1
14b387033396: 1
14b387040400: 1
14b3870413b8: 1
14b38704066c: 1
14b387040682: 1
14b3870411c8: 1
14b387033340: 1
14b38703393a: 1
14b38703d103: 1
14b387033944: 1
14b387040c43: 1
14b38703d0db: 1
14b3870333c0: 1
14b3870339b9: 1
14b387040443: 1
14b3870404ee: 1
14b3870406f2: 1
14b387040f41: 1
14b387040f1c: 1
14b38703fd70: 1
14b387040c24: 1
BTB TOTAL     ACCESS:   37027234  HIT:   37027062  MISS:        172  HIT %:    99.9995  MISS %: 0.000464523   MPKI: 0.00086
BTB Test counter:          0
BTB BRANCH_DIRECT_JUMP	ACCESS:         67  HIT:         33  MISS:         34
BTB BRANCH_INDIRECT	ACCESS:          4  HIT:          0  MISS:          4
BTB BRANCH_CONDITIONAL	ACCESS:   37027097  HIT:   37027009  MISS:         88
BTB BRANCH_DIRECT_CALL	ACCESS:         28  HIT:         10  MISS:         18
BTB BRANCH_INDIRECT_CALL	ACCESS:          5  HIT:          1  MISS:          4
BTB BRANCH_RETURN	ACCESS:         33  HIT:          9  MISS:         24
BTB BRANCH_OTHER ACCESS:          0  HIT:          0  MISS:          0

L2C TOTAL     ACCESS:   65484102  HIT:   37507799  MISS:   27976303  HIT %:    57.2777  MISS %:    42.7223   MPKI: 139.882
L2C Test counter:          0
L2C LOAD      ACCESS:   31996098  HIT:    9408887  MISS:   22587211  HIT %:    29.4064  MISS %:    70.5936   MPKI: 112.936
L2C DATA LOAD MPKI: 112.936
L2C INSTRUCTION LOAD MPKI: 0.000115
L2C RFO       ACCESS:      65559  HIT:         63  MISS:      65496  HIT %:  0.0960966  MISS %:    99.9039   MPKI: 0.32748
L2C PREFETCH  ACCESS:   30290906  HIT:   24974874  MISS:    5316032  HIT %:    82.4501  MISS %:    17.5499   MPKI: 26.5802
L2C DATA PREFETCH MPKI: 26.5802
L2C INSTRUCTION PREFETCH MPKI: 0
L2C WRITEBACK ACCESS:     150318  HIT:     150160  MISS:        158  HIT %:    99.8949  MISS %:    0.10511   MPKI: 0.00079
L2C LOAD TRANSLATION ACCESS:      25461  HIT:      25215  MISS:        246  HIT %:    99.0338  MISS %:   0.966184   MPKI: 0.00123
L2C TRANSLATION FROM L1D PREFETCHER ACCESS:    2955760  HIT:    2948600  MISS:       7160  HIT %:    99.7578  MISS %:   0.242239   MPKI: 0.0358
L2C PREFETCH  REQUESTED:          0  ISSUED:          0  USEFUL:     634906  USELESS:    4688309
L2C USEFUL LOAD PREFETCHES:     634906 PREFETCH ISSUED TO LOWER LEVEL:    5391197  ACCURACY: 11.7767
L2C TIMELY PREFETCHES:     634906 LATE PREFETCHES: 75165 DROPPED PREFETCHES: 0
L2C COMMIT LATE PREFETCHES: 0 MISSED OPPORTUNITY: 0 LATE IN PQ: 0 UNCOVERED: 0
L2C COMMIT LATE MSHR PREFETCHES: 0
L2C MPKI TOTAL: 112.936 MSHR LATE: 0.375825 PQ LATE: 0 COMMIT LATE: 0 MISSED OPPORTUNITY: 0 UNCOVERED: 0
L2C PREFETCHES SAME FILL-ORIGIN LEVEL: 4006660 DIFFERENT FILL-ORIGIN LEVEL: 0
L2C AVERAGE MISS LATENCY: 111.379 cycles
L2C AVERAGE MISS LATENCY LOAD: 101.828 cycles
L2C AVERAGE MISS LATENCY PREFETCH: 150.922 cycles
L2C AVERAGE MSHR OCCUPANCY: 0.29567
L2C MSHR FULL: 0
L2C RQ	ACCESS:   35042881	FORWARD:          0	MERGED:          0	TO_CACHE:   35042878
L2C WQ	ACCESS:     150318	FORWARD:          3	MERGED:          0	TO_CACHE:     150318
L2C PQ	ACCESS:   33020139	FORWARD:          0	MERGED:       5976	TO_CACHE:   33014163

L2C Instructions Evicting Data 23
L2C Translations Evicting Data 7406
L2C Data Evicting Data 27961288
L2C Instructions Evicting Instructions 0
L2C Translations Evicting Instructions 0
L2C Data Evicting Instructions 23
L2C Instructions Evicting Translations 0
L2C Translations Evicting Translations 0
L2C Data Evicting Translations 7405
L2C Dense regions hint from L2: 0
14b38703b530: 1
55fa52a1e510: 1
14b38703b3bc: 1
14b38703b5e5: 1
55fa52a2003f: 1
14b38703886b: 1
14b387112230: 1
14b38703ecdd: 1
14b38711226f: 1
14b38703d0db: 1
14b38703b3c3: 1
14b38711224b: 1
14b38703b3cc: 1
14b387001040: 1
14b387091143: 1
55fa52a1ffe0: 1
14b38703f1d1: 1
14b38706b951: 1
14b387001230: 1
14b38703def2: 1
14b387040c43: 1
14b38703d103: 1
14b38703b67e: 1
14b38703c461: 1
55fa52a1ffee: 1
14b38703b67a: 1
14b38703dee7: 1
14b387041760: 1
14b3870413b8: 1
14b38703ecd6: 1
14b38709b578: 1
14b38703f1c6: 1
14b3870333c0: 1
14b387112240: 1
14b387091646: 1
14b387040682: 1
14b387033944: 1
14b38703393a: 1
14b387033340: 1
14b3870406f2: 1
14b387033396: 1
14b3870404ee: 1
14b3870413c4: 1
14b38703f6d6: 1
14b3870411c8: 1
14b387040f41: 1
14b3871100b0: 1
14b38703fd70: 1
14b387040c24: 1
55fa52a2000d: 1
14b3870403df: 1
14b387112247: 1
14b3870339b9: 1
14b38703f6e4: 1
14b387112254: 1
14b387112264: 1
14b387040f1c: 1
55fa52a2002d: 1
14b387040443: 1
14b38704066c: 1
14b387040400: 1
55fa52a20000: 3
14b3870404f2: 5
55fa52a20075: 189
55fa52a20054: 228
55fa52a20050: 319
55fa52a2007b: 363
55fa52a20093: 3964
55fa52a20060: 14617
55fa52a2006a: 22567462
PSCL5 TOTAL     ACCESS:    2981030  HIT:    2981030  MISS:          0  HIT %:        100  MISS %:          0   MPKI: 0
PSCL5 Test counter:          0
PSCL5 LOAD TRANSLATION ACCESS:      25450  HIT:      25450  MISS:          0  HIT %:        100  MISS %:          0   MPKI: 0
PSCL5 TRANSLATION FROM L1D PREFETCHER ACCESS:    2955580  HIT:    2955580  MISS:          0  HIT %:        100  MISS %:          0   MPKI: 0
PSCL5 PREFETCH  REQUESTED:          0  ISSUED:          0  USEFUL:          0  USELESS:          0
PSCL5 USEFUL LOAD PREFETCHES:          0 PREFETCH ISSUED TO LOWER LEVEL:          0  ACCURACY: -nan
PSCL5 TIMELY PREFETCHES:          0 LATE PREFETCHES: 0 DROPPED PREFETCHES: 0
PSCL5 COMMIT LATE PREFETCHES: 0 MISSED OPPORTUNITY: 0 LATE IN PQ: 0 UNCOVERED: 0
PSCL5 COMMIT LATE MSHR PREFETCHES: 0
PSCL5 MPKI TOTAL: 0 MSHR LATE: 0 PQ LATE: 0 COMMIT LATE: 0 MISSED OPPORTUNITY: 0 UNCOVERED: 0
PSCL5 PREFETCHES SAME FILL-ORIGIN LEVEL: 0 DIFFERENT FILL-ORIGIN LEVEL: 0

PSCL4 TOTAL     ACCESS:    2981030  HIT:    2981030  MISS:          0  HIT %:        100  MISS %:          0   MPKI: 0
PSCL4 Test counter:          0
PSCL4 LOAD TRANSLATION ACCESS:      25450  HIT:      25450  MISS:          0  HIT %:        100  MISS %:          0   MPKI: 0
PSCL4 TRANSLATION FROM L1D PREFETCHER ACCESS:    2955580  HIT:    2955580  MISS:          0  HIT %:        100  MISS %:          0   MPKI: 0
PSCL4 PREFETCH  REQUESTED:          0  ISSUED:          0  USEFUL:          0  USELESS:          0
PSCL4 USEFUL LOAD PREFETCHES:          0 PREFETCH ISSUED TO LOWER LEVEL:          0  ACCURACY: -nan
PSCL4 TIMELY PREFETCHES:          0 LATE PREFETCHES: 0 DROPPED PREFETCHES: 0
PSCL4 COMMIT LATE PREFETCHES: 0 MISSED OPPORTUNITY: 0 LATE IN PQ: 0 UNCOVERED: 0
PSCL4 COMMIT LATE MSHR PREFETCHES: 0
PSCL4 MPKI TOTAL: 0 MSHR LATE: 0 PQ LATE: 0 COMMIT LATE: 0 MISSED OPPORTUNITY: 0 UNCOVERED: 0
PSCL4 PREFETCHES SAME FILL-ORIGIN LEVEL: 0 DIFFERENT FILL-ORIGIN LEVEL: 0

PSCL3 TOTAL     ACCESS:    2981030  HIT:    2981030  MISS:          0  HIT %:        100  MISS %:          0   MPKI: 0
PSCL3 Test counter:          0
PSCL3 LOAD TRANSLATION ACCESS:      25450  HIT:      25450  MISS:          0  HIT %:        100  MISS %:          0   MPKI: 0
PSCL3 TRANSLATION FROM L1D PREFETCHER ACCESS:    2955580  HIT:    2955580  MISS:          0  HIT %:        100  MISS %:          0   MPKI: 0
PSCL3 PREFETCH  REQUESTED:          0  ISSUED:          0  USEFUL:          0  USELESS:          0
PSCL3 USEFUL LOAD PREFETCHES:          0 PREFETCH ISSUED TO LOWER LEVEL:          0  ACCURACY: -nan
PSCL3 TIMELY PREFETCHES:          0 LATE PREFETCHES: 0 DROPPED PREFETCHES: 0
PSCL3 COMMIT LATE PREFETCHES: 0 MISSED OPPORTUNITY: 0 LATE IN PQ: 0 UNCOVERED: 0
PSCL3 COMMIT LATE MSHR PREFETCHES: 0
PSCL3 MPKI TOTAL: 0 MSHR LATE: 0 PQ LATE: 0 COMMIT LATE: 0 MISSED OPPORTUNITY: 0 UNCOVERED: 0
PSCL3 PREFETCHES SAME FILL-ORIGIN LEVEL: 0 DIFFERENT FILL-ORIGIN LEVEL: 0

PSCL2 TOTAL     ACCESS:    2975344  HIT:    2975258  MISS:         86  HIT %:    99.9971  MISS %: 0.00289042   MPKI: 0.00043
PSCL2 Test counter:          0
PSCL2 LOAD TRANSLATION ACCESS:      25478  HIT:      25392  MISS:         86  HIT %:    99.6625  MISS %:   0.337546   MPKI: 0.00043
PSCL2 TRANSLATION FROM L1D PREFETCHER ACCESS:    2949866  HIT:    2949866  MISS:          0  HIT %:        100  MISS %:          0   MPKI: 0
PSCL2 PREFETCH  REQUESTED:          0  ISSUED:          0  USEFUL:          0  USELESS:          0
PSCL2 USEFUL LOAD PREFETCHES:          0 PREFETCH ISSUED TO LOWER LEVEL:          0  ACCURACY: -nan
PSCL2 TIMELY PREFETCHES:          0 LATE PREFETCHES: 0 DROPPED PREFETCHES: 0
PSCL2 COMMIT LATE PREFETCHES: 0 MISSED OPPORTUNITY: 0 LATE IN PQ: 0 UNCOVERED: 0
PSCL2 COMMIT LATE MSHR PREFETCHES: 0
PSCL2 MPKI TOTAL: 0 MSHR LATE: 0 PQ LATE: 0 COMMIT LATE: 0 MISSED OPPORTUNITY: 0 UNCOVERED: 0
PSCL2 PREFETCHES SAME FILL-ORIGIN LEVEL: 0 DIFFERENT FILL-ORIGIN LEVEL: 0

LLC TOTAL     ACCESS:   28112629  HIT:   13072944  MISS:   15039685  HIT %:     46.502  MISS %:     53.498   MPKI: 75.1984
LLC Test counter:          0
LLC LOAD      ACCESS:   22512046  HIT:   12198296  MISS:   10313750  HIT %:    54.1856  MISS %:    45.8144   MPKI: 51.5688
LLC RFO       ACCESS:      65496  HIT:       1618  MISS:      63878  HIT %:    2.47038  MISS %:    97.5296   MPKI: 0.31939
LLC PREFETCH  ACCESS:    5391197  HIT:     734812  MISS:    4656385  HIT %:    13.6298  MISS %:    86.3702   MPKI: 23.2819
LLC WRITEBACK ACCESS:     136484  HIT:     136355  MISS:        129  HIT %:    99.9055  MISS %:  0.0945166   MPKI: 0.000645
LLC LOAD TRANSLATION ACCESS:        246  HIT:          4  MISS:        242  HIT %:    1.62602  MISS %:     98.374   MPKI: 0.00121
LLC TRANSLATION FROM L1D PREFETCHER ACCESS:       7160  HIT:       1859  MISS:       5301  HIT %:    25.9637  MISS %:    74.0363   MPKI: 0.026505
LLC PREFETCH  REQUESTED:          0  ISSUED:          0  USEFUL:     355541  USELESS:    4306164
LLC USEFUL LOAD PREFETCHES:     355541 PREFETCH ISSUED TO LOWER LEVEL:    4656385  ACCURACY: 7.63556
LLC TIMELY PREFETCHES:     355541 LATE PREFETCHES: 0 DROPPED PREFETCHES: 0
LLC COMMIT LATE PREFETCHES: 0 MISSED OPPORTUNITY: 0 LATE IN PQ: 0 UNCOVERED: 0
LLC COMMIT LATE MSHR PREFETCHES: 0
LLC MPKI TOTAL: 51.5688 MSHR LATE: 0 PQ LATE: 0 COMMIT LATE: 0 MISSED OPPORTUNITY: 0 UNCOVERED: 0
LLC PREFETCHES SAME FILL-ORIGIN LEVEL: 0 DIFFERENT FILL-ORIGIN LEVEL: 0
LLC AVERAGE MISS LATENCY: 151.68 cycles
LLC AVERAGE MISS LATENCY LOAD: 156.962 cycles
LLC AVERAGE MISS LATENCY PREFETCH: 139.787 cycles
LLC AVERAGE MSHR OCCUPANCY: 0.158997
LLC MSHR FULL: 0
LLC RQ	ACCESS:   22584948	FORWARD:          0	MERGED:          0	TO_CACHE:   22584948
LLC WQ	ACCESS:     136484	FORWARD:          0	MERGED:          0	TO_CACHE:     136484
LLC PQ	ACCESS:    5391197	FORWARD:          0	MERGED:          0	TO_CACHE:    5391197

LLC Dense regions hint to LLC: 0
14b38703b530: 1
55fa52a1e510: 1
14b38703b3bc: 1
14b38703b5e5: 1
14b38703ecdd: 1
14b38711226f: 1
14b38703d0db: 1
14b387112230: 1
14b38703886b: 1
14b38703f1d1: 1
14b38703b3c3: 1
14b38711224b: 1
14b38703b3cc: 1
14b387001040: 1
14b387091143: 1
55fa52a1ffe0: 1
55fa52a2000d: 1
14b38706b951: 1
14b387001230: 1
14b38703def2: 1
14b387040c43: 1
14b38703d103: 1
14b38703b67e: 1
14b38703c461: 1
55fa52a1ffee: 1
14b38703b67a: 1
14b38703dee7: 1
14b387041760: 1
14b3870413b8: 1
14b38703ecd6: 1
14b38709b578: 1
14b38703f1c6: 1
14b3870333c0: 1
14b387112240: 1
14b387091646: 1
14b387040682: 1
14b387033944: 1
14b38703393a: 1
14b387033340: 1
14b3870406f2: 1
14b387033396: 1
14b3870404ee: 1
14b3870413c4: 1
14b38703f6d6: 1
14b3870411c8: 1
14b387040f41: 1
14b3871100b0: 1
14b38703fd70: 1
14b387040c24: 1
55fa52a2003f: 1
14b387040443: 1
14b38703f6e4: 1
14b387112254: 1
14b387112264: 1
14b3870403df: 1
14b3870339b9: 1
55fa52a2002d: 1
14b387112247: 1
14b38704066c: 1
14b387040400: 1
14b387040f1c: 1
55fa52a20000: 3
14b3870404f2: 5
55fa52a20075: 9
55fa52a20054: 30
55fa52a20050: 37
55fa52a2007b: 52
55fa52a20093: 245
55fa52a20060: 14617
55fa52a2006a: 10298691

RAW hits: 21
Loads Generated: 77353856
Loads sent to L1D: 77353833
Stores Generated: 3299680
Stores sent to L1D: 3299680
Major fault: 0 Minor fault: 34900
Allocated PAGES: 34900
Total Load insts: 95651109
Total Non-spec loads: 44679360
Percentage of speculative loads: 53.2892
L1D response latency: 86.8759 cycles
Load retirement latency: 104.94 cycles

LATENCY_FILL: 86.7327 31973056

DRAM Statistics
 CHANNEL 0
 RQ ROW_BUFFER_HIT:    3512917  ROW_BUFFER_MISS:   11526638
 DBUS_CONGESTED:       1252
 WQ ROW_BUFFER_HIT:      35459  ROW_BUFFER_MISS:     100689  FULL:          0

 AVG_CONGESTED_CYCLE: 5
 All warmup complete: 2
Channel 0 Bank busy for read cycles: 0
Channel 0 Bank busy for write cycles: 0
Channel 0
Rank 0
0banks busy for read cycles: 1909608281
0banks busy for write cycles: 65252
1banks busy for read cycles: 1425930105
1banks busy for write cycles: 13777218
2banks busy for read cycles: 138088738
2banks busy for write cycles: 1285311
3banks busy for read cycles: 35794387
3banks busy for write cycles: 475638
4banks busy for read cycles: 8752699
4banks busy for write cycles: 243938
5banks busy for read cycles: 3305331
5banks busy for write cycles: 181341
6banks busy for read cycles: 1520493
6banks busy for write cycles: 126539
7banks busy for read cycles: 763111
7banks busy for write cycles: 177797
8banks busy for read cycles: 3659276
8banks busy for write cycles: 1779158

CPU 0 Branch Prediction Accuracy: 96.9594% MPKI: 5.62926 Average ROB Occupancy at Mispredict: 138.204
Branch types
NOT_BRANCH: 162972290 81.4861%
BRANCH_DIRECT_JUMP: 67 3.35e-05%
BRANCH_INDIRECT: 4 2e-06%
BRANCH_CONDITIONAL: 37027324 18.5137%
BRANCH_DIRECT_CALL: 28 1.4e-05%
BRANCH_INDIRECT_CALL: 5 2.5e-06%
BRANCH_RETURN: 33 1.65e-05%
BRANCH_OTHER: 0 0%

DRAM PAGES: 1048576
Allocated PAGES: 34900
