
*** ChampSim Multicore Out-of-Order Simulator ***

Warmup Instructions: 50000000
Simulation Instructions: 200000000
Number of CPUs: 1
LLC sets: 2048
LLC ways: 16
Secure Berti: OFF
Berti: OFF
Berti Fill: OFF
On commit prefetching: OFF
L2 LLC Bypass speculative loads: OFF
Off-chip DRAM Size: 4096 MB Channels: 1 Width: 64-bit Data Rate: 6400 MT/s
CPU 0 runs /home/sumon/secure_berti/Berti_Baseline/../../traces/gap/pr-3.trace.gz
.gz
BTB has LRU replacement policy
ITLB has LRU replacement policy
DTLB has LRU replacement policy
STLB has LRU replacement policy
L1I has LRU replacement policy
History Sets: 8
History Ways: 16
BERTI Size: 16
BERTI Stride Size: 16
L1D has LRU replacement policy
L2C has LRU replacement policy
LLC has LRU replacement policy
Heartbeat CPU 0 instructions: 10000002 cycles: 3333444 heartbeat IPC: 2.9999 cumulative IPC: 2.9999 (Simulation time: 0 hr 0 min 12 sec) 
Heartbeat CPU 0 instructions: 20000002 cycles: 9932219 heartbeat IPC: 1.51543 cumulative IPC: 2.01365 (Simulation time: 0 hr 0 min 40 sec) 
Heartbeat CPU 0 instructions: 30000001 cycles: 17071425 heartbeat IPC: 1.40072 cumulative IPC: 1.75732 (Simulation time: 0 hr 1 min 12 sec) 
Heartbeat CPU 0 instructions: 40000000 cycles: 24241562 heartbeat IPC: 1.39467 cumulative IPC: 1.65006 (Simulation time: 0 hr 1 min 44 sec) 
Heartbeat CPU 0 instructions: 50000000 cycles: 31422393 heartbeat IPC: 1.3926 cumulative IPC: 1.59122 (Simulation time: 0 hr 2 min 16 sec) 

Warmup complete CPU 0 instructions: 50000001 cycles: 31422394 (Simulation time: 0 hr 2 min 16 sec) 

Heartbeat CPU 0 instructions: 60000003 cycles: 215449744 heartbeat IPC: 0.0543398 cumulative IPC: 0.0543398 (Simulation time: 0 hr 4 min 12 sec) 
Heartbeat CPU 0 instructions: 70000001 cycles: 402164499 heartbeat IPC: 0.0535576 cumulative IPC: 0.0539459 (Simulation time: 0 hr 6 min 7 sec) 
Heartbeat CPU 0 instructions: 80000003 cycles: 590072285 heartbeat IPC: 0.0532176 cumulative IPC: 0.0537009 (Simulation time: 0 hr 8 min 2 sec) 
Heartbeat CPU 0 instructions: 90000000 cycles: 777522109 heartbeat IPC: 0.0533476 cumulative IPC: 0.0536121 (Simulation time: 0 hr 9 min 57 sec) 
Heartbeat CPU 0 instructions: 100000002 cycles: 966013124 heartbeat IPC: 0.0530529 cumulative IPC: 0.0534994 (Simulation time: 0 hr 11 min 52 sec) 
Heartbeat CPU 0 instructions: 110000000 cycles: 1153028022 heartbeat IPC: 0.0534717 cumulative IPC: 0.0534947 (Simulation time: 0 hr 13 min 45 sec) 
Heartbeat CPU 0 instructions: 120000001 cycles: 1340788353 heartbeat IPC: 0.0532594 cumulative IPC: 0.053461 (Simulation time: 0 hr 15 min 34 sec) 
Heartbeat CPU 0 instructions: 130000001 cycles: 1528163323 heartbeat IPC: 0.0533689 cumulative IPC: 0.0534495 (Simulation time: 0 hr 17 min 21 sec) 
Heartbeat CPU 0 instructions: 140000002 cycles: 1716118561 heartbeat IPC: 0.0532042 cumulative IPC: 0.0534221 (Simulation time: 0 hr 19 min 7 sec) 
Heartbeat CPU 0 instructions: 150000000 cycles: 1903997969 heartbeat IPC: 0.0532256 cumulative IPC: 0.0534024 (Simulation time: 0 hr 20 min 54 sec) 
Heartbeat CPU 0 instructions: 160000002 cycles: 2091326370 heartbeat IPC: 0.0533822 cumulative IPC: 0.0534005 (Simulation time: 0 hr 22 min 39 sec) 
Heartbeat CPU 0 instructions: 170000003 cycles: 2278815644 heartbeat IPC: 0.0533364 cumulative IPC: 0.0533952 (Simulation time: 0 hr 24 min 25 sec) 
Heartbeat CPU 0 instructions: 180000002 cycles: 2467314389 heartbeat IPC: 0.0530507 cumulative IPC: 0.0533685 (Simulation time: 0 hr 26 min 10 sec) 
Heartbeat CPU 0 instructions: 190000000 cycles: 2603909718 heartbeat IPC: 0.0732089 cumulative IPC: 0.054422 (Simulation time: 0 hr 27 min 32 sec) 
Heartbeat CPU 0 instructions: 200000001 cycles: 2645446986 heartbeat IPC: 0.240748 cumulative IPC: 0.0573828 (Simulation time: 0 hr 28 min 9 sec) 
Heartbeat CPU 0 instructions: 210000003 cycles: 2832518903 heartbeat IPC: 0.0534554 cumulative IPC: 0.0571205 (Simulation time: 0 hr 29 min 54 sec) 
Heartbeat CPU 0 instructions: 220000000 cycles: 3017966305 heartbeat IPC: 0.0539236 cumulative IPC: 0.056922 (Simulation time: 0 hr 31 min 39 sec) 
Heartbeat CPU 0 instructions: 230000000 cycles: 3206072557 heartbeat IPC: 0.0531614 cumulative IPC: 0.0566992 (Simulation time: 0 hr 33 min 24 sec) 
Heartbeat CPU 0 instructions: 240000003 cycles: 3395537338 heartbeat IPC: 0.0527803 cumulative IPC: 0.0564785 (Simulation time: 0 hr 35 min 11 sec) 
Heartbeat CPU 0 instructions: 250000001 cycles: 3579242926 heartbeat IPC: 0.0544349 cumulative IPC: 0.0563726 (Simulation time: 0 hr 36 min 57 sec) 
Finished CPU 0 instructions: 200000000 cycles: 3547820532 cumulative IPC: 0.0563726 (Simulation time: 0 hr 36 min 57 sec) 

ChampSim completed all CPUs

Region of Interest Statistics

CPU 0 cumulative IPC: 0.0563726 instructions: 200000000 cycles: 3547820532
ITLB TOTAL     ACCESS:   58899232  HIT:   58899232  MISS:          0  HIT %:        100  MISS %:          0   MPKI: 0
ITLB Test counter:          0
ITLB LOAD TRANSLATION ACCESS:   58899232  HIT:   58899232  MISS:          0  HIT %:        100  MISS %:          0   MPKI: 0
ITLB PREFETCH  REQUESTED:          0  ISSUED:          0  USEFUL:          0  USELESS:          0
ITLB USEFUL LOAD PREFETCHES:          0 PREFETCH ISSUED TO LOWER LEVEL:          0  ACCURACY: -nan
ITLB TIMELY PREFETCHES:          0 LATE PREFETCHES: 0 DROPPED PREFETCHES: 0
ITLB COMMIT LATE PREFETCHES: 0 MISSED OPPORTUNITY: 0 LATE IN PQ: 0 UNCOVERED: 0
ITLB COMMIT LATE MSHR PREFETCHES: 0
ITLB MPKI TOTAL: 0 MSHR LATE: 0 PQ LATE: 0 COMMIT LATE: 0 MISSED OPPORTUNITY: 0 UNCOVERED: 0
ITLB PREFETCHES SAME FILL-ORIGIN LEVEL: 0 DIFFERENT FILL-ORIGIN LEVEL: 0
ITLB AVERAGE MISS LATENCY: -nan cycles
ITLB AVERAGE MISS LATENCY LOAD: -nan cycles
ITLB AVERAGE MISS LATENCY PREFETCH: -nan cycles
ITLB AVERAGE MSHR OCCUPANCY: 0
ITLB MSHR FULL: 0
ITLB RQ	ACCESS:   60024553	FORWARD:          0	MERGED:    1125322	TO_CACHE:   58899231

DTLB TOTAL     ACCESS:   67224300  HIT:   44338697  MISS:   22885603  HIT %:    65.9564  MISS %:    34.0436   MPKI: 114.428
DTLB Test counter:          0
DTLB LOAD TRANSLATION ACCESS:   67224300  HIT:   44338697  MISS:   22885603  HIT %:    65.9564  MISS %:    34.0436   MPKI: 114.428
DTLB PREFETCH  REQUESTED:          0  ISSUED:          0  USEFUL:          0  USELESS:          0
DTLB USEFUL LOAD PREFETCHES:          0 PREFETCH ISSUED TO LOWER LEVEL:          0  ACCURACY: -nan
DTLB TIMELY PREFETCHES:          0 LATE PREFETCHES: 0 DROPPED PREFETCHES: 0
DTLB COMMIT LATE PREFETCHES: 0 MISSED OPPORTUNITY: 0 LATE IN PQ: 0 UNCOVERED: 0
DTLB COMMIT LATE MSHR PREFETCHES: 0
DTLB MPKI TOTAL: 0 MSHR LATE: 0 PQ LATE: 0 COMMIT LATE: 0 MISSED OPPORTUNITY: 0 UNCOVERED: 0
DTLB PREFETCHES SAME FILL-ORIGIN LEVEL: 0 DIFFERENT FILL-ORIGIN LEVEL: 0
DTLB AVERAGE MISS LATENCY: 9.12293 cycles
DTLB AVERAGE MISS LATENCY LOAD: -nan cycles
DTLB AVERAGE MISS LATENCY PREFETCH: -nan cycles
DTLB AVERAGE MSHR OCCUPANCY: 0.199764
DTLB MSHR FULL: 0
DTLB RQ	ACCESS:   67883501	FORWARD:          0	MERGED:     652550	TO_CACHE:   67230951

STLB TOTAL     ACCESS:   50998031  HIT:   50957167  MISS:      40864  HIT %:    99.9199  MISS %:  0.0801286   MPKI: 0.20432
STLB Test counter:          0
STLB LOAD TRANSLATION ACCESS:   22885603  HIT:   22860093  MISS:      25510  HIT %:    99.8885  MISS %:   0.111467   MPKI: 0.12755
STLB TRANSLATION FROM L1D PREFETCHER ACCESS:   28112428  HIT:   28097074  MISS:      15354  HIT %:    99.9454  MISS %:  0.0546164   MPKI: 0.07677
STLB PREFETCH  REQUESTED:          0  ISSUED:          0  USEFUL:      15354  USELESS:          0
STLB USEFUL LOAD PREFETCHES:      15354 PREFETCH ISSUED TO LOWER LEVEL:          0  ACCURACY: inf
STLB TIMELY PREFETCHES:      15354 LATE PREFETCHES: 4618 DROPPED PREFETCHES: 2922964
STLB COMMIT LATE PREFETCHES: 0 MISSED OPPORTUNITY: 0 LATE IN PQ: 0 UNCOVERED: 0
STLB COMMIT LATE MSHR PREFETCHES: 0
STLB MPKI TOTAL: 0 MSHR LATE: 0.02309 PQ LATE: 0 COMMIT LATE: 0 MISSED OPPORTUNITY: 0 UNCOVERED: 0
STLB PREFETCHES SAME FILL-ORIGIN LEVEL: 0 DIFFERENT FILL-ORIGIN LEVEL: 0
STLB AVERAGE MISS LATENCY: 83.9184 cycles
STLB AVERAGE MISS LATENCY LOAD: -nan cycles
STLB AVERAGE MISS LATENCY PREFETCH: -nan cycles
STLB AVERAGE MSHR OCCUPANCY: 0.010331
STLB MSHR FULL: 0
STLB RQ	ACCESS:  219239982	FORWARD:          0	MERGED:  165261926	TO_CACHE:   53978056

STLB Hit, L1D data hit: 0
STLB Hit, L2C data hit: 0
STLB Hit, LLC data hit: 0
STLB Hit, LLC data miss: 0
STLB STLB hints to L2: 0
L1D TOTAL     ACCESS:  220170231  HIT:  185532633  MISS:   34637598  HIT %:    84.2678  MISS %:    15.7322   MPKI: 173.188
L1D Test counter:          0
L1D LOAD      ACCESS:   64526661  HIT:   32563120  MISS:   32019783  HIT %:    50.4646  MISS %:    49.5354   MPKI: 159.818
L1D RFO       ACCESS:    2581993  HIT:    2516436  MISS:      65557  HIT %:     97.461  MISS %:    2.53901   MPKI: 0.327785
L1D PREFETCH  ACCESS:  153061577  HIT:  150453077  MISS:    2608500  HIT %:    98.2958  MISS %:    1.70422   MPKI: 13.0425
L1D PREFETCH  REQUESTED:  406283549  ISSUED:  405165705  USEFUL:    2507210  USELESS:     101318
L1D USEFUL LOAD PREFETCHES:    2507210 PREFETCH ISSUED TO LOWER LEVEL:   33949293  ACCURACY: 7.38516
L1D TIMELY PREFETCHES:    2507210 LATE PREFETCHES: 24950 DROPPED PREFETCHES: 8949745
L1D COMMIT LATE PREFETCHES: 0 MISSED OPPORTUNITY: 0 LATE IN PQ: 1771 UNCOVERED: 0
L1D COMMIT LATE MSHR PREFETCHES: 0
L1D MPKI TOTAL: 160.099 MSHR LATE: 0.12475 PQ LATE: 0.008855 COMMIT LATE: 0 MISSED OPPORTUNITY: 0 UNCOVERED: 0
L1D PREFETCHES SAME FILL-ORIGIN LEVEL: 2633450 DIFFERENT FILL-ORIGIN LEVEL: 31315843
L1D AVERAGE MISS LATENCY: 89.6222 cycles
L1D AVERAGE MISS LATENCY LOAD: 87.0362 cycles
L1D AVERAGE MISS LATENCY PREFETCH: 118.568 cycles
L1D AVERAGE MSHR OCCUPANCY: 0.507828
L1D MSHR FULL: 1.85808e-07
L1D RQ	ACCESS:   77353315	FORWARD:          0	MERGED:   12770402	TO_CACHE:   64582902
L1D WQ	ACCESS:    3300603	FORWARD:         11	MERGED:          4	TO_CACHE:    3300599
L1D PQ	ACCESS:  208811326	FORWARD:          0	MERGED:   12456947	TO_CACHE:  196354379

L1D UNIQUE REGIONS ACCESSED: 0
L1D REGIONS CONFLICTS: 0
L1D Cross Page Prefetch Requests: 23517833
L1D Same Page Prefetch Requests: 246991834
L1D ROI Sum of L1D PQ occupancy: 3032663019
L1D PREFETCHES PUSHED FROM L2C: 0
14cb10b67ef2: 1
55fe46b7b02d: 1
14cb10c3a0b0: 1
14cb10b653bc: 1
14cb10b655e5: 1
14cb10b653cc: 1
14cb10b653c3: 1
14cb10bbb143: 1
55fe46b7b03f: 1
14cb10b65530: 1
14cb10b95951: 1
14cb10b2b230: 1
14cb10c3c264: 1
14cb10b691c6: 1
14cb10b68cd6: 1
14cb10bc5578: 1
14cb10b6567e: 1
14cb10b66461: 1
14cb10b6567a: 1
14cb10b67ee7: 1
14cb10b6b760: 1
14cb10c3c26f: 1
14cb10b68cdd: 1
14cb10b696e4: 1
55fe46b7b00d: 1
55fe46b7afee: 1
55fe46b7afe0: 1
14cb10b2b100: 1
14cb10b696d6: 1
14cb10bbb646: 1
14cb10b691d1: 1
14cb10c3c24b: 1
14cb10c3c240: 1
14cb10c3c230: 1
14cb10c3c254: 1
55fe46b79510: 1
14cb10c3c247: 1
14cb10b2b040: 1
14cb10b6286b: 1
55fe46b7b000: 3
14cb10b6a4f2: 5
55fe46b7b09e: 7213
55fe46b7b093: 7252
55fe46b7b050: 7574
55fe46b7b054: 7660
55fe46b7b075: 7929
55fe46b7b060: 27970
55fe46b7b07b: 37426
55fe46b7b06a: 31860470
L1I TOTAL     ACCESS:   60024553  HIT:   60024530  MISS:         23  HIT %:        100  MISS %: 3.83177e-05   MPKI: 0.000115
L1I Test counter:          0
L1I LOAD      ACCESS:   60024553  HIT:   60024530  MISS:         24  HIT %:        100  MISS %: 3.83177e-05   MPKI: 0.000115
L1I PREFETCH  REQUESTED:          0  ISSUED:          0  USEFUL:          0  USELESS:          0
L1I USEFUL LOAD PREFETCHES:          0 PREFETCH ISSUED TO LOWER LEVEL:          0  ACCURACY: -nan
L1I TIMELY PREFETCHES:          0 LATE PREFETCHES: 0 DROPPED PREFETCHES: 0
L1I COMMIT LATE PREFETCHES: 0 MISSED OPPORTUNITY: 0 LATE IN PQ: 0 UNCOVERED: 0
L1I COMMIT LATE MSHR PREFETCHES: 0
L1I MPKI TOTAL: 0.00012 MSHR LATE: 0 PQ LATE: 0 COMMIT LATE: 0 MISSED OPPORTUNITY: 0 UNCOVERED: 0
L1I PREFETCHES SAME FILL-ORIGIN LEVEL: 0 DIFFERENT FILL-ORIGIN LEVEL: 0
L1I AVERAGE MISS LATENCY: 170.522 cycles
L1I AVERAGE MISS LATENCY LOAD: 170.522 cycles
L1I AVERAGE MISS LATENCY PREFETCH: -nan cycles
L1I AVERAGE MSHR OCCUPANCY: 1.49939e-07
L1I MSHR FULL: 0
L1I RQ	ACCESS:   71110970	FORWARD:          0	MERGED:   11086417	TO_CACHE:   60024553

14cb10b6a3df: 1
14cb10b6b3c4: 1
14cb10b5d396: 1
14cb10b6a400: 1
14cb10b6b3b8: 1
14cb10b6a66c: 1
14cb10b6a682: 1
14cb10b6b1c8: 1
14cb10b5d340: 1
14cb10b5d93a: 1
14cb10b67103: 1
14cb10b5d944: 1
14cb10b6a350: 1
14cb10b670db: 1
14cb10b5d3c0: 1
14cb10b5d9b9: 1
14cb10b6a443: 1
14cb10b6a4ee: 1
14cb10b6a6f2: 1
14cb10b6af41: 1
14cb10b6af1c: 1
14cb10b69d70: 1
14cb10b6a31f: 1
BTB TOTAL     ACCESS:   37026577  HIT:   37026405  MISS:        172  HIT %:    99.9995  MISS %: 0.000464531   MPKI: 0.00086
BTB Test counter:          0
BTB BRANCH_DIRECT_JUMP	ACCESS:         66  HIT:         33  MISS:         33
BTB BRANCH_INDIRECT	ACCESS:          4  HIT:          0  MISS:          4
BTB BRANCH_CONDITIONAL	ACCESS:   37026441  HIT:   37026352  MISS:         89
BTB BRANCH_DIRECT_CALL	ACCESS:         28  HIT:         10  MISS:         18
BTB BRANCH_INDIRECT_CALL	ACCESS:          5  HIT:          1  MISS:          4
BTB BRANCH_RETURN	ACCESS:         33  HIT:          9  MISS:         24
BTB BRANCH_OTHER ACCESS:          0  HIT:          0  MISS:          0

L2C TOTAL     ACCESS:   66174673  HIT:   38112495  MISS:   28062178  HIT %:    57.5938  MISS %:    42.4062   MPKI: 140.311
L2C Test counter:          0
L2C LOAD      ACCESS:   31938613  HIT:    9316856  MISS:   22621757  HIT %:    29.1711  MISS %:    70.8289   MPKI: 113.109
L2C DATA LOAD MPKI: 113.109
L2C INSTRUCTION LOAD MPKI: 0.000115
L2C RFO       ACCESS:      65557  HIT:        128  MISS:      65429  HIT %:    0.19525  MISS %:    99.8048   MPKI: 0.327145
L2C PREFETCH  ACCESS:   31051924  HIT:   25684460  MISS:    5367464  HIT %:    82.7146  MISS %:    17.2854   MPKI: 26.8373
L2C DATA PREFETCH MPKI: 26.8373
L2C INSTRUCTION PREFETCH MPKI: 0
L2C WRITEBACK ACCESS:     150014  HIT:     149958  MISS:         56  HIT %:    99.9627  MISS %:  0.0373298   MPKI: 0.00028
L2C LOAD TRANSLATION ACCESS:      25521  HIT:      25273  MISS:        248  HIT %:    99.0283  MISS %:   0.971749   MPKI: 0.00124
L2C TRANSLATION FROM L1D PREFETCHER ACCESS:    2943044  HIT:    2935820  MISS:       7224  HIT %:    99.7545  MISS %:    0.24546   MPKI: 0.03612
L2C PREFETCH  REQUESTED:          0  ISSUED:          0  USEFUL:     641850  USELESS:    4732900
L2C USEFUL LOAD PREFETCHES:     641850 PREFETCH ISSUED TO LOWER LEVEL:    5444906  ACCURACY: 11.7881
L2C TIMELY PREFETCHES:     641850 LATE PREFETCHES: 77442 DROPPED PREFETCHES: 0
L2C COMMIT LATE PREFETCHES: 0 MISSED OPPORTUNITY: 0 LATE IN PQ: 0 UNCOVERED: 0
L2C COMMIT LATE MSHR PREFETCHES: 0
L2C MPKI TOTAL: 113.109 MSHR LATE: 0.38721 PQ LATE: 0 COMMIT LATE: 0 MISSED OPPORTUNITY: 0 UNCOVERED: 0
L2C PREFETCHES SAME FILL-ORIGIN LEVEL: 4081277 DIFFERENT FILL-ORIGIN LEVEL: 0
L2C AVERAGE MISS LATENCY: 111.597 cycles
L2C AVERAGE MISS LATENCY LOAD: 101.814 cycles
L2C AVERAGE MISS LATENCY PREFETCH: 151.873 cycles
L2C AVERAGE MSHR OCCUPANCY: 0.297443
L2C MSHR FULL: 0
L2C RQ	ACCESS:   34972736	FORWARD:          0	MERGED:          0	TO_CACHE:   34972735
L2C WQ	ACCESS:     150014	FORWARD:          1	MERGED:          0	TO_CACHE:     150014
L2C PQ	ACCESS:   33949293	FORWARD:          0	MERGED:       7044	TO_CACHE:   33942249

L2C Instructions Evicting Data 23
L2C Translations Evicting Data 7468
L2C Data Evicting Data 28047142
L2C Instructions Evicting Instructions 0
L2C Translations Evicting Instructions 1
L2C Data Evicting Instructions 22
L2C Instructions Evicting Translations 0
L2C Translations Evicting Translations 3
L2C Data Evicting Translations 7463
L2C Dense regions hint from L2: 0
14cb10c3c26f: 1
14cb10b653cc: 1
14cb10b6286b: 1
14cb10b6a31f: 1
14cb10b655e5: 1
14cb10b653bc: 1
14cb10c3a0b0: 1
14cb10b67103: 1
14cb10b6a350: 1
14cb10b653c3: 1
14cb10b68cdd: 1
14cb10c3c264: 1
14cb10c3c247: 1
55fe46b79510: 1
55fe46b7b02d: 1
14cb10b696e4: 1
14cb10c3c254: 1
14cb10b6b3b8: 1
14cb10b6b760: 1
14cb10b67ee7: 1
14cb10b6567a: 1
14cb10b66461: 1
14cb10b6567e: 1
14cb10bc5578: 1
14cb10b68cd6: 1
14cb10b691c6: 1
14cb10b5d9b9: 1
14cb10b670db: 1
14cb10b67ef2: 1
14cb10b2b230: 1
14cb10b95951: 1
14cb10b65530: 1
55fe46b7b03f: 1
14cb10bbb143: 1
14cb10b5d396: 1
14cb10b2b040: 1
14cb10b6a4ee: 1
14cb10bbb646: 1
14cb10b6a682: 1
14cb10b5d944: 1
14cb10b5d93a: 1
14cb10b5d340: 1
14cb10b6a6f2: 1
14cb10b2b100: 1
14cb10b5d3c0: 1
14cb10b6b3c4: 1
14cb10b696d6: 1
14cb10b6b1c8: 1
14cb10b6af41: 1
14cb10b69d70: 1
55fe46b7afe0: 1
55fe46b7b00d: 1
14cb10b6a66c: 1
14cb10b6a443: 1
14cb10b6af1c: 1
14cb10b6a400: 1
14cb10c3c230: 1
55fe46b7afee: 1
14cb10b6a3df: 1
14cb10b691d1: 1
14cb10c3c240: 1
14cb10c3c24b: 1
55fe46b7b000: 3
14cb10b6a4f2: 5
55fe46b7b09e: 30
55fe46b7b075: 35
55fe46b7b093: 40
55fe46b7b054: 236
55fe46b7b07b: 329
55fe46b7b050: 338
55fe46b7b060: 14617
55fe46b7b06a: 22606062
PSCL5 TOTAL     ACCESS:    2968446  HIT:    2968446  MISS:          0  HIT %:        100  MISS %:          0   MPKI: 0
PSCL5 Test counter:          0
PSCL5 LOAD TRANSLATION ACCESS:      25510  HIT:      25510  MISS:          0  HIT %:        100  MISS %:          0   MPKI: 0
PSCL5 TRANSLATION FROM L1D PREFETCHER ACCESS:    2942936  HIT:    2942936  MISS:          0  HIT %:        100  MISS %:          0   MPKI: 0
PSCL5 PREFETCH  REQUESTED:          0  ISSUED:          0  USEFUL:          0  USELESS:          0
PSCL5 USEFUL LOAD PREFETCHES:          0 PREFETCH ISSUED TO LOWER LEVEL:          0  ACCURACY: -nan
PSCL5 TIMELY PREFETCHES:          0 LATE PREFETCHES: 0 DROPPED PREFETCHES: 0
PSCL5 COMMIT LATE PREFETCHES: 0 MISSED OPPORTUNITY: 0 LATE IN PQ: 0 UNCOVERED: 0
PSCL5 COMMIT LATE MSHR PREFETCHES: 0
PSCL5 MPKI TOTAL: 0 MSHR LATE: 0 PQ LATE: 0 COMMIT LATE: 0 MISSED OPPORTUNITY: 0 UNCOVERED: 0
PSCL5 PREFETCHES SAME FILL-ORIGIN LEVEL: 0 DIFFERENT FILL-ORIGIN LEVEL: 0

PSCL4 TOTAL     ACCESS:    2968446  HIT:    2968446  MISS:          0  HIT %:        100  MISS %:          0   MPKI: 0
PSCL4 Test counter:          0
PSCL4 LOAD TRANSLATION ACCESS:      25510  HIT:      25510  MISS:          0  HIT %:        100  MISS %:          0   MPKI: 0
PSCL4 TRANSLATION FROM L1D PREFETCHER ACCESS:    2942936  HIT:    2942936  MISS:          0  HIT %:        100  MISS %:          0   MPKI: 0
PSCL4 PREFETCH  REQUESTED:          0  ISSUED:          0  USEFUL:          0  USELESS:          0
PSCL4 USEFUL LOAD PREFETCHES:          0 PREFETCH ISSUED TO LOWER LEVEL:          0  ACCURACY: -nan
PSCL4 TIMELY PREFETCHES:          0 LATE PREFETCHES: 0 DROPPED PREFETCHES: 0
PSCL4 COMMIT LATE PREFETCHES: 0 MISSED OPPORTUNITY: 0 LATE IN PQ: 0 UNCOVERED: 0
PSCL4 COMMIT LATE MSHR PREFETCHES: 0
PSCL4 MPKI TOTAL: 0 MSHR LATE: 0 PQ LATE: 0 COMMIT LATE: 0 MISSED OPPORTUNITY: 0 UNCOVERED: 0
PSCL4 PREFETCHES SAME FILL-ORIGIN LEVEL: 0 DIFFERENT FILL-ORIGIN LEVEL: 0

PSCL3 TOTAL     ACCESS:    2968446  HIT:    2968446  MISS:          0  HIT %:        100  MISS %:          0   MPKI: 0
PSCL3 Test counter:          0
PSCL3 LOAD TRANSLATION ACCESS:      25510  HIT:      25510  MISS:          0  HIT %:        100  MISS %:          0   MPKI: 0
PSCL3 TRANSLATION FROM L1D PREFETCHER ACCESS:    2942936  HIT:    2942936  MISS:          0  HIT %:        100  MISS %:          0   MPKI: 0
PSCL3 PREFETCH  REQUESTED:          0  ISSUED:          0  USEFUL:          0  USELESS:          0
PSCL3 USEFUL LOAD PREFETCHES:          0 PREFETCH ISSUED TO LOWER LEVEL:          0  ACCURACY: -nan
PSCL3 TIMELY PREFETCHES:          0 LATE PREFETCHES: 0 DROPPED PREFETCHES: 0
PSCL3 COMMIT LATE PREFETCHES: 0 MISSED OPPORTUNITY: 0 LATE IN PQ: 0 UNCOVERED: 0
PSCL3 COMMIT LATE MSHR PREFETCHES: 0
PSCL3 MPKI TOTAL: 0 MSHR LATE: 0 PQ LATE: 0 COMMIT LATE: 0 MISSED OPPORTUNITY: 0 UNCOVERED: 0
PSCL3 PREFETCHES SAME FILL-ORIGIN LEVEL: 0 DIFFERENT FILL-ORIGIN LEVEL: 0

PSCL2 TOTAL     ACCESS:    2962723  HIT:    2962639  MISS:         84  HIT %:    99.9972  MISS %: 0.00283523   MPKI: 0.00042
PSCL2 Test counter:          0
PSCL2 LOAD TRANSLATION ACCESS:      25536  HIT:      25452  MISS:         84  HIT %:    99.6711  MISS %:   0.328947   MPKI: 0.00042
PSCL2 TRANSLATION FROM L1D PREFETCHER ACCESS:    2937187  HIT:    2937187  MISS:          0  HIT %:        100  MISS %:          0   MPKI: 0
PSCL2 PREFETCH  REQUESTED:          0  ISSUED:          0  USEFUL:          0  USELESS:          0
PSCL2 USEFUL LOAD PREFETCHES:          0 PREFETCH ISSUED TO LOWER LEVEL:          0  ACCURACY: -nan
PSCL2 TIMELY PREFETCHES:          0 LATE PREFETCHES: 0 DROPPED PREFETCHES: 0
PSCL2 COMMIT LATE PREFETCHES: 0 MISSED OPPORTUNITY: 0 LATE IN PQ: 0 UNCOVERED: 0
PSCL2 COMMIT LATE MSHR PREFETCHES: 0
PSCL2 MPKI TOTAL: 0 MSHR LATE: 0 PQ LATE: 0 COMMIT LATE: 0 MISSED OPPORTUNITY: 0 UNCOVERED: 0
PSCL2 PREFETCHES SAME FILL-ORIGIN LEVEL: 0 DIFFERENT FILL-ORIGIN LEVEL: 0

LLC TOTAL     ACCESS:   28198478  HIT:   13084167  MISS:   15114311  HIT %:    46.4003  MISS %:    53.5997   MPKI: 75.5716
LLC Test counter:          0
LLC LOAD      ACCESS:   22544315  HIT:   12261213  MISS:   10283102  HIT %:    54.3872  MISS %:    45.6128   MPKI: 51.4155
LLC RFO       ACCESS:      65429  HIT:       1463  MISS:      63966  HIT %:    2.23601  MISS %:     97.764   MPKI: 0.31983
LLC PREFETCH  ACCESS:    5444906  HIT:     683331  MISS:    4761575  HIT %:    12.5499  MISS %:    87.4501   MPKI: 23.8079
LLC WRITEBACK ACCESS:     136356  HIT:     136306  MISS:         50  HIT %:    99.9633  MISS %:  0.0366687   MPKI: 0.00025
LLC LOAD TRANSLATION ACCESS:        248  HIT:          2  MISS:        246  HIT %:   0.806452  MISS %:    99.1935   MPKI: 0.00123
LLC TRANSLATION FROM L1D PREFETCHER ACCESS:       7224  HIT:       1852  MISS:       5372  HIT %:    25.6368  MISS %:    74.3632   MPKI: 0.02686
LLC PREFETCH  REQUESTED:          0  ISSUED:          0  USEFUL:     356757  USELESS:    4412411
LLC USEFUL LOAD PREFETCHES:     356757 PREFETCH ISSUED TO LOWER LEVEL:    4761575  ACCURACY: 7.49242
LLC TIMELY PREFETCHES:     356757 LATE PREFETCHES: 0 DROPPED PREFETCHES: 0
LLC COMMIT LATE PREFETCHES: 0 MISSED OPPORTUNITY: 0 LATE IN PQ: 0 UNCOVERED: 0
LLC COMMIT LATE MSHR PREFETCHES: 0
LLC MPKI TOTAL: 51.4155 MSHR LATE: 0 PQ LATE: 0 COMMIT LATE: 0 MISSED OPPORTUNITY: 0 UNCOVERED: 0
LLC PREFETCHES SAME FILL-ORIGIN LEVEL: 0 DIFFERENT FILL-ORIGIN LEVEL: 0
LLC AVERAGE MISS LATENCY: 151.812 cycles
LLC AVERAGE MISS LATENCY LOAD: 157.632 cycles
LLC AVERAGE MISS LATENCY PREFETCH: 139.134 cycles
LLC AVERAGE MSHR OCCUPANCY: 0.159597
LLC MSHR FULL: 0
LLC RQ	ACCESS:   22617216	FORWARD:          0	MERGED:          0	TO_CACHE:   22617216
LLC WQ	ACCESS:     136356	FORWARD:          0	MERGED:          0	TO_CACHE:     136356
LLC PQ	ACCESS:    5444906	FORWARD:          0	MERGED:          0	TO_CACHE:    5444906

LLC Dense regions hint to LLC: 0
14cb10c3c26f: 1
14cb10b653c3: 1
14cb10b6286b: 1
14cb10b6a31f: 1
14cb10b655e5: 1
14cb10b653bc: 1
14cb10c3a0b0: 1
14cb10b67103: 1
14cb10b6a350: 1
14cb10bbb143: 1
14cb10b68cdd: 1
14cb10c3c264: 1
14cb10c3c247: 1
55fe46b79510: 1
55fe46b7b02d: 1
14cb10b696e4: 1
14cb10b2b040: 1
14cb10b5d9b9: 1
55fe46b7b03f: 1
14cb10b65530: 1
14cb10b95951: 1
14cb10b2b230: 1
14cb10b67ef2: 1
14cb10b670db: 1
14cb10b6b3b8: 1
14cb10b68cd6: 1
14cb10b691c6: 1
14cb10bc5578: 1
14cb10b6567e: 1
14cb10b66461: 1
14cb10b6567a: 1
14cb10b67ee7: 1
14cb10b6b760: 1
14cb10b6a4ee: 1
55fe46b7b00d: 1
55fe46b7afe0: 1
14cb10b69d70: 1
14cb10b6af41: 1
14cb10b6b1c8: 1
14cb10b696d6: 1
14cb10b6b3c4: 1
14cb10b5d3c0: 1
14cb10b5d396: 1
14cb10b6a6f2: 1
14cb10b5d340: 1
14cb10b5d93a: 1
14cb10b5d944: 1
14cb10b6a682: 1
14cb10bbb646: 1
55fe46b7afee: 1
14cb10c3c254: 1
14cb10c3c230: 1
14cb10c3c240: 1
14cb10c3c24b: 1
14cb10b653cc: 1
14cb10b691d1: 1
14cb10b6a3df: 1
14cb10b2b100: 1
14cb10b6a400: 1
14cb10b6af1c: 1
14cb10b6a443: 1
14cb10b6a66c: 1
55fe46b7b000: 3
14cb10b6a4f2: 5
55fe46b7b054: 23
55fe46b7b050: 28
55fe46b7b093: 31
55fe46b7b075: 32
55fe46b7b07b: 35
55fe46b7b060: 14617
55fe46b7b06a: 10268266

RAW hits: 20
Loads Generated: 77353336
Loads sent to L1D: 77353315
Stores Generated: 3300603
Stores sent to L1D: 3300603
Major fault: 0 Minor fault: 34900
Allocated PAGES: 34900
Total Load insts: 95642886
Total Non-spec loads: 44671375
Percentage of speculative loads: 53.2936
L1D response latency: 87.1042 cycles
Load retirement latency: 104.861 cycles

LATENCY_FILL: 86.9581 31921019

DRAM Statistics
 CHANNEL 0
 RQ ROW_BUFFER_HIT:    3532394  ROW_BUFFER_MISS:   11581866
 DBUS_CONGESTED:       1261
 WQ ROW_BUFFER_HIT:      33331  ROW_BUFFER_MISS:     102799  FULL:          0

 AVG_CONGESTED_CYCLE: 4
 All warmup complete: 2
Channel 0 Bank busy for read cycles: 0
Channel 0 Bank busy for write cycles: 0
Channel 0
Rank 0
0banks busy for read cycles: 1908697284
0banks busy for write cycles: 66330
1banks busy for read cycles: 1425608888
1banks busy for write cycles: 14089849
2banks busy for read cycles: 140578157
2banks busy for write cycles: 1318141
3banks busy for read cycles: 35656369
3banks busy for write cycles: 425123
4banks busy for read cycles: 9003032
4banks busy for write cycles: 235940
5banks busy for read cycles: 3564730
5banks busy for write cycles: 151089
6banks busy for read cycles: 1694690
6banks busy for write cycles: 123693
7banks busy for read cycles: 879278
7banks busy for write cycles: 162807
8banks busy for read cycles: 3764882
8banks busy for write cycles: 1800251

CPU 0 Branch Prediction Accuracy: 96.9582% MPKI: 5.63138 Average ROB Occupancy at Mispredict: 137.79
Branch types
NOT_BRANCH: 162973200 81.4866%
BRANCH_DIRECT_JUMP: 66 3.3e-05%
BRANCH_INDIRECT: 4 2e-06%
BRANCH_CONDITIONAL: 37026665 18.5133%
BRANCH_DIRECT_CALL: 28 1.4e-05%
BRANCH_INDIRECT_CALL: 5 2.5e-06%
BRANCH_RETURN: 33 1.65e-05%
BRANCH_OTHER: 0 0%

DRAM PAGES: 1048576
Allocated PAGES: 34900
