
*** ChampSim Multicore Out-of-Order Simulator ***

Warmup Instructions: 50000000
Simulation Instructions: 200000000
Number of CPUs: 1
LLC sets: 2048
LLC ways: 16
Secure Berti: OFF
Berti: OFF
Berti Fill: OFF
On commit prefetching: OFF
L2 LLC Bypass speculative loads: OFF
Off-chip DRAM Size: 4096 MB Channels: 1 Width: 64-bit Data Rate: 6400 MT/s
CPU 0 runs /home/sumon/secure_berti/Berti_Baseline/../../traces/gap/pr-5.trace.gz
.gz
BTB has LRU replacement policy
ITLB has LRU replacement policy
DTLB has LRU replacement policy
STLB has LRU replacement policy
L1I has LRU replacement policy
History Sets: 8
History Ways: 16
BERTI Size: 16
BERTI Stride Size: 16
L1D has LRU replacement policy
L2C has LRU replacement policy
LLC has LRU replacement policy
Heartbeat CPU 0 instructions: 10000001 cycles: 3333439 heartbeat IPC: 2.99991 cumulative IPC: 2.99991 (Simulation time: 0 hr 0 min 12 sec) 
Heartbeat CPU 0 instructions: 20000001 cycles: 9898669 heartbeat IPC: 1.52318 cumulative IPC: 2.02047 (Simulation time: 0 hr 0 min 41 sec) 
Heartbeat CPU 0 instructions: 30000000 cycles: 16993218 heartbeat IPC: 1.40953 cumulative IPC: 1.76541 (Simulation time: 0 hr 1 min 15 sec) 
Heartbeat CPU 0 instructions: 40000002 cycles: 24127761 heartbeat IPC: 1.40163 cumulative IPC: 1.65784 (Simulation time: 0 hr 1 min 49 sec) 
Heartbeat CPU 0 instructions: 50000003 cycles: 31256166 heartbeat IPC: 1.40284 cumulative IPC: 1.59968 (Simulation time: 0 hr 2 min 22 sec) 

Warmup complete CPU 0 instructions: 50000003 cycles: 31256166 (Simulation time: 0 hr 2 min 22 sec) 

Heartbeat CPU 0 instructions: 60000000 cycles: 209223438 heartbeat IPC: 0.0561901 cumulative IPC: 0.0561901 (Simulation time: 0 hr 5 min 25 sec) 
Heartbeat CPU 0 instructions: 70000002 cycles: 391668170 heartbeat IPC: 0.0548111 cumulative IPC: 0.055492 (Simulation time: 0 hr 8 min 36 sec) 
Heartbeat CPU 0 instructions: 80000001 cycles: 573317891 heartbeat IPC: 0.055051 cumulative IPC: 0.0553442 (Simulation time: 0 hr 10 min 28 sec) 
Heartbeat CPU 0 instructions: 90000000 cycles: 754997157 heartbeat IPC: 0.055042 cumulative IPC: 0.0552684 (Simulation time: 0 hr 12 min 19 sec) 
Heartbeat CPU 0 instructions: 100000000 cycles: 935874735 heartbeat IPC: 0.055286 cumulative IPC: 0.0552719 (Simulation time: 0 hr 14 min 11 sec) 
Heartbeat CPU 0 instructions: 110000000 cycles: 1119771386 heartbeat IPC: 0.0543784 cumulative IPC: 0.055121 (Simulation time: 0 hr 15 min 59 sec) 
Heartbeat CPU 0 instructions: 120000002 cycles: 1301547804 heartbeat IPC: 0.0550126 cumulative IPC: 0.0551055 (Simulation time: 0 hr 17 min 44 sec) 
Heartbeat CPU 0 instructions: 130000003 cycles: 1484535575 heartbeat IPC: 0.0546485 cumulative IPC: 0.0550479 (Simulation time: 0 hr 19 min 30 sec) 
Heartbeat CPU 0 instructions: 140000000 cycles: 1665710143 heartbeat IPC: 0.0551954 cumulative IPC: 0.0550643 (Simulation time: 0 hr 21 min 14 sec) 
Heartbeat CPU 0 instructions: 150000001 cycles: 1847871719 heartbeat IPC: 0.0548963 cumulative IPC: 0.0550474 (Simulation time: 0 hr 22 min 59 sec) 
Heartbeat CPU 0 instructions: 160000001 cycles: 2028938210 heartbeat IPC: 0.0552283 cumulative IPC: 0.0550638 (Simulation time: 0 hr 24 min 44 sec) 
Heartbeat CPU 0 instructions: 170000001 cycles: 2211580414 heartbeat IPC: 0.0547519 cumulative IPC: 0.0550377 (Simulation time: 0 hr 26 min 28 sec) 
Heartbeat CPU 0 instructions: 180000000 cycles: 2393191281 heartbeat IPC: 0.0550628 cumulative IPC: 0.0550396 (Simulation time: 0 hr 28 min 13 sec) 
Heartbeat CPU 0 instructions: 190000000 cycles: 2525860006 heartbeat IPC: 0.0753757 cumulative IPC: 0.0561211 (Simulation time: 0 hr 29 min 33 sec) 
Heartbeat CPU 0 instructions: 200000003 cycles: 2567182218 heartbeat IPC: 0.242001 cumulative IPC: 0.05915 (Simulation time: 0 hr 30 min 10 sec) 
Heartbeat CPU 0 instructions: 210000001 cycles: 2749851334 heartbeat IPC: 0.0547438 cumulative IPC: 0.0588539 (Simulation time: 0 hr 31 min 54 sec) 
Heartbeat CPU 0 instructions: 220000000 cycles: 2931365516 heartbeat IPC: 0.0550921 cumulative IPC: 0.0586185 (Simulation time: 0 hr 33 min 39 sec) 
Heartbeat CPU 0 instructions: 230000001 cycles: 3113866205 heartbeat IPC: 0.0547943 cumulative IPC: 0.0583921 (Simulation time: 0 hr 35 min 23 sec) 
Heartbeat CPU 0 instructions: 240000000 cycles: 3295144397 heartbeat IPC: 0.0551638 cumulative IPC: 0.0582128 (Simulation time: 0 hr 37 min 8 sec) 
Heartbeat CPU 0 instructions: 250000003 cycles: 3472966229 heartbeat IPC: 0.0562361 cumulative IPC: 0.0581106 (Simulation time: 0 hr 38 min 53 sec) 
Finished CPU 0 instructions: 200000000 cycles: 3441710063 cumulative IPC: 0.0581106 (Simulation time: 0 hr 38 min 53 sec) 

ChampSim completed all CPUs

Region of Interest Statistics

CPU 0 cumulative IPC: 0.0581106 instructions: 200000000 cycles: 3441710063
ITLB TOTAL     ACCESS:   58918206  HIT:   58918206  MISS:          0  HIT %:        100  MISS %:          0   MPKI: 0
ITLB Test counter:          0
ITLB LOAD TRANSLATION ACCESS:   58918206  HIT:   58918206  MISS:          0  HIT %:        100  MISS %:          0   MPKI: 0
ITLB PREFETCH  REQUESTED:          0  ISSUED:          0  USEFUL:          0  USELESS:          0
ITLB USEFUL LOAD PREFETCHES:          0 PREFETCH ISSUED TO LOWER LEVEL:          0  ACCURACY: -nan
ITLB TIMELY PREFETCHES:          0 LATE PREFETCHES: 0 DROPPED PREFETCHES: 0
ITLB COMMIT LATE PREFETCHES: 0 MISSED OPPORTUNITY: 0 LATE IN PQ: 0 UNCOVERED: 0
ITLB COMMIT LATE MSHR PREFETCHES: 0
ITLB MPKI TOTAL: 0 MSHR LATE: 0 PQ LATE: 0 COMMIT LATE: 0 MISSED OPPORTUNITY: 0 UNCOVERED: 0
ITLB PREFETCHES SAME FILL-ORIGIN LEVEL: 0 DIFFERENT FILL-ORIGIN LEVEL: 0
ITLB AVERAGE MISS LATENCY: -nan cycles
ITLB AVERAGE MISS LATENCY LOAD: -nan cycles
ITLB AVERAGE MISS LATENCY PREFETCH: -nan cycles
ITLB AVERAGE MSHR OCCUPANCY: 0
ITLB MSHR FULL: 0
ITLB RQ	ACCESS:   60043197	FORWARD:          0	MERGED:    1124992	TO_CACHE:   58918205

DTLB TOTAL     ACCESS:   67117470  HIT:   44203591  MISS:   22913879  HIT %:      65.86  MISS %:      34.14   MPKI: 114.569
DTLB Test counter:          0
DTLB LOAD TRANSLATION ACCESS:   67117470  HIT:   44203591  MISS:   22913879  HIT %:      65.86  MISS %:      34.14   MPKI: 114.569
DTLB PREFETCH  REQUESTED:          0  ISSUED:          0  USEFUL:          0  USELESS:          0
DTLB USEFUL LOAD PREFETCHES:          0 PREFETCH ISSUED TO LOWER LEVEL:          0  ACCURACY: -nan
DTLB TIMELY PREFETCHES:          0 LATE PREFETCHES: 0 DROPPED PREFETCHES: 0
DTLB COMMIT LATE PREFETCHES: 0 MISSED OPPORTUNITY: 0 LATE IN PQ: 0 UNCOVERED: 0
DTLB COMMIT LATE MSHR PREFETCHES: 0
DTLB MPKI TOTAL: 0 MSHR LATE: 0 PQ LATE: 0 COMMIT LATE: 0 MISSED OPPORTUNITY: 0 UNCOVERED: 0
DTLB PREFETCHES SAME FILL-ORIGIN LEVEL: 0 DIFFERENT FILL-ORIGIN LEVEL: 0
DTLB AVERAGE MISS LATENCY: 9.12318 cycles
DTLB AVERAGE MISS LATENCY LOAD: -nan cycles
DTLB AVERAGE MISS LATENCY PREFETCH: -nan cycles
DTLB AVERAGE MSHR OCCUPANCY: 0.200285
DTLB MSHR FULL: 0
DTLB RQ	ACCESS:   67831040	FORWARD:          0	MERGED:     706749	TO_CACHE:   67124291

STLB TOTAL     ACCESS:   50916291  HIT:   50875433  MISS:      40858  HIT %:    99.9198  MISS %:  0.0802454   MPKI: 0.20429
STLB Test counter:          0
STLB LOAD TRANSLATION ACCESS:   22913879  HIT:   22888388  MISS:      25491  HIT %:    99.8888  MISS %:   0.111247   MPKI: 0.127455
STLB TRANSLATION FROM L1D PREFETCHER ACCESS:   28002412  HIT:   27987045  MISS:      15367  HIT %:    99.9451  MISS %:  0.0548774   MPKI: 0.076835
STLB PREFETCH  REQUESTED:          0  ISSUED:          0  USEFUL:      15367  USELESS:          0
STLB USEFUL LOAD PREFETCHES:      15367 PREFETCH ISSUED TO LOWER LEVEL:          0  ACCURACY: inf
STLB TIMELY PREFETCHES:      15367 LATE PREFETCHES: 4514 DROPPED PREFETCHES: 2938954
STLB COMMIT LATE PREFETCHES: 0 MISSED OPPORTUNITY: 0 LATE IN PQ: 0 UNCOVERED: 0
STLB COMMIT LATE MSHR PREFETCHES: 0
STLB MPKI TOTAL: 0 MSHR LATE: 0.02257 PQ LATE: 0 COMMIT LATE: 0 MISSED OPPORTUNITY: 0 UNCOVERED: 0
STLB PREFETCHES SAME FILL-ORIGIN LEVEL: 0 DIFFERENT FILL-ORIGIN LEVEL: 0
STLB AVERAGE MISS LATENCY: 85.7792 cycles
STLB AVERAGE MISS LATENCY LOAD: -nan cycles
STLB AVERAGE MISS LATENCY PREFETCH: -nan cycles
STLB AVERAGE MSHR OCCUPANCY: 0.0105225
STLB MSHR FULL: 0
STLB RQ	ACCESS:  218338824	FORWARD:          0	MERGED:  164425940	TO_CACHE:   53912884

STLB Hit, L1D data hit: 0
STLB Hit, L2C data hit: 0
STLB Hit, LLC data hit: 0
STLB Hit, LLC data miss: 0
STLB STLB hints to L2: 0
L1D TOTAL     ACCESS:  220510763  HIT:  185879994  MISS:   34630769  HIT %:    84.2952  MISS %:    15.7048   MPKI: 173.154
L1D Test counter:          0
L1D LOAD      ACCESS:   64472207  HIT:   32521888  MISS:   32008920  HIT %:    50.4433  MISS %:    49.5567   MPKI: 159.752
L1D RFO       ACCESS:    2602142  HIT:    2536585  MISS:      65557  HIT %:    97.4807  MISS %:    2.51935   MPKI: 0.327785
L1D PREFETCH  ACCESS:  153436414  HIT:  150821521  MISS:    2614893  HIT %:    98.2958  MISS %:    1.70422   MPKI: 13.0745
L1D PREFETCH  REQUESTED:  404464419  ISSUED:  403305054  USEFUL:    2512405  USELESS:     102491
L1D USEFUL LOAD PREFETCHES:    2512405 PREFETCH ISSUED TO LOWER LEVEL:   32636939  ACCURACY: 7.69804
L1D TIMELY PREFETCHES:    2512405 LATE PREFETCHES: 23375 DROPPED PREFETCHES: 8918351
L1D COMMIT LATE PREFETCHES: 0 MISSED OPPORTUNITY: 0 LATE IN PQ: 1722 UNCOVERED: 0
L1D COMMIT LATE MSHR PREFETCHES: 0
L1D MPKI TOTAL: 160.045 MSHR LATE: 0.116875 PQ LATE: 0.00861 COMMIT LATE: 0 MISSED OPPORTUNITY: 0 UNCOVERED: 0
L1D PREFETCHES SAME FILL-ORIGIN LEVEL: 2638268 DIFFERENT FILL-ORIGIN LEVEL: 29998671
L1D AVERAGE MISS LATENCY: 86.8138 cycles
L1D AVERAGE MISS LATENCY LOAD: 83.749 cycles
L1D AVERAGE MISS LATENCY PREFETCH: 121.47 cycles
L1D AVERAGE MSHR OCCUPANCY: 0.509897
L1D MSHR FULL: 7.74824e-08
L1D RQ	ACCESS:   77353672	FORWARD:          0	MERGED:   12822860	TO_CACHE:   64530807
L1D WQ	ACCESS:    3300237	FORWARD:          5	MERGED:          4	TO_CACHE:    3300233
L1D PQ	ACCESS:  207880108	FORWARD:          0	MERGED:   12455162	TO_CACHE:  195424946

L1D UNIQUE REGIONS ACCESSED: 0
L1D REGIONS CONFLICTS: 0
L1D Cross Page Prefetch Requests: 23384477
L1D Same Page Prefetch Requests: 245548125
L1D ROI Sum of L1D PQ occupancy: 3019447705
L1D PREFETCHES PUSHED FROM L2C: 0
154f9c6fccd6: 1
154f9c6fbef2: 1
154f9c6f93cc: 1
154f9c6f93c3: 1
154f9c74f143: 1
154f9c6bf040: 1
55f071ae102d: 1
154f9c6f9530: 1
154f9c6f93bc: 1
154f9c6f95e5: 1
154f9c6f686b: 1
55f071ae100d: 1
154f9c6fd1c6: 1
154f9c759578: 1
55f071ae103f: 1
154f9c6f967e: 1
154f9c6fa461: 1
154f9c6f967a: 1
154f9c6fbee7: 1
154f9c6ff760: 1
154f9c7d026f: 1
154f9c6fccdd: 1
154f9c7d0247: 1
154f9c74f646: 1
154f9c7d0264: 1
154f9c7d0254: 1
154f9c7d024b: 1
55f071adf510: 1
154f9c7d0230: 1
154f9c6fd6d6: 1
154f9c7d0240: 1
154f9c6fd6e4: 1
154f9c7ce0b0: 1
154f9c6bf100: 1
154f9c729951: 1
55f071ae0fe0: 1
154f9c6bf230: 1
55f071ae0fee: 1
55f071ae0ff2: 1
154f9c6fd1d1: 1
55f071ae1000: 3
154f9c6fe4f2: 5
55f071ae1093: 7040
55f071ae1054: 7286
55f071ae1075: 7362
55f071ae1050: 7530
55f071ae1060: 28049
55f071ae107b: 34509
55f071ae106a: 31858495
L1I TOTAL     ACCESS:   60043197  HIT:   60043175  MISS:         22  HIT %:        100  MISS %: 3.66403e-05   MPKI: 0.00011
L1I Test counter:          0
L1I LOAD      ACCESS:   60043197  HIT:   60043175  MISS:         23  HIT %:        100  MISS %: 3.66403e-05   MPKI: 0.00011
L1I PREFETCH  REQUESTED:          0  ISSUED:          0  USEFUL:          0  USELESS:          0
L1I USEFUL LOAD PREFETCHES:          0 PREFETCH ISSUED TO LOWER LEVEL:          0  ACCURACY: -nan
L1I TIMELY PREFETCHES:          0 LATE PREFETCHES: 0 DROPPED PREFETCHES: 0
L1I COMMIT LATE PREFETCHES: 0 MISSED OPPORTUNITY: 0 LATE IN PQ: 0 UNCOVERED: 0
L1I COMMIT LATE MSHR PREFETCHES: 0
L1I MPKI TOTAL: 0.000115 MSHR LATE: 0 PQ LATE: 0 COMMIT LATE: 0 MISSED OPPORTUNITY: 0 UNCOVERED: 0
L1I PREFETCHES SAME FILL-ORIGIN LEVEL: 0 DIFFERENT FILL-ORIGIN LEVEL: 0
L1I AVERAGE MISS LATENCY: 154.909 cycles
L1I AVERAGE MISS LATENCY LOAD: 154.909 cycles
L1I AVERAGE MISS LATENCY PREFETCH: -nan cycles
L1I AVERAGE MSHR OCCUPANCY: 1.33237e-07
L1I MSHR FULL: 0
L1I RQ	ACCESS:   71133081	FORWARD:          0	MERGED:   11089884	TO_CACHE:   60043197

154f9c6f1944: 1
154f9c6ff3c4: 1
154f9c6f1396: 1
154f9c6fe400: 1
154f9c6ff3b8: 1
154f9c6fe66c: 1
154f9c6f1340: 1
154f9c6f193a: 1
154f9c6fe682: 1
154f9c6ff1c8: 1
154f9c6fb103: 1
154f9c6fdb9a: 1
154f9c6fe3df: 1
154f9c6fb0db: 1
154f9c6f13c0: 1
154f9c6f19b9: 1
154f9c6fe443: 1
154f9c6fe4ee: 1
154f9c6fe6f2: 1
154f9c6fef41: 1
154f9c6fef1c: 1
154f9c6fdd70: 1
BTB TOTAL     ACCESS:   37026927  HIT:   37026756  MISS:        171  HIT %:    99.9995  MISS %: 0.000461826   MPKI: 0.000855
BTB Test counter:          0
BTB BRANCH_DIRECT_JUMP	ACCESS:         66  HIT:         33  MISS:         33
BTB BRANCH_INDIRECT	ACCESS:          4  HIT:          0  MISS:          4
BTB BRANCH_CONDITIONAL	ACCESS:   37026791  HIT:   37026703  MISS:         88
BTB BRANCH_DIRECT_CALL	ACCESS:         28  HIT:         10  MISS:         18
BTB BRANCH_INDIRECT_CALL	ACCESS:          5  HIT:          1  MISS:          4
BTB BRANCH_RETURN	ACCESS:         33  HIT:          9  MISS:         24
BTB BRANCH_OTHER ACCESS:          0  HIT:          0  MISS:          0

L2C TOTAL     ACCESS:   64915549  HIT:   37245655  MISS:   27669894  HIT %:    57.3756  MISS %:    42.6244   MPKI: 138.349
L2C Test counter:          0
L2C LOAD      ACCESS:   31926964  HIT:    9723221  MISS:   22203743  HIT %:    30.4546  MISS %:    69.5454   MPKI: 111.019
L2C DATA LOAD MPKI: 111.019
L2C INSTRUCTION LOAD MPKI: 0.00011
L2C RFO       ACCESS:      65557  HIT:        160  MISS:      65397  HIT %:   0.244062  MISS %:    99.7559   MPKI: 0.326985
L2C PREFETCH  ACCESS:   29788451  HIT:   24395458  MISS:    5392993  HIT %:    81.8957  MISS %:    18.1043   MPKI: 26.965
L2C DATA PREFETCH MPKI: 26.965
L2C INSTRUCTION PREFETCH MPKI: 0
L2C WRITEBACK ACCESS:     150111  HIT:     149885  MISS:        226  HIT %:    99.8494  MISS %:   0.150555   MPKI: 0.00113
L2C LOAD TRANSLATION ACCESS:      25502  HIT:      25257  MISS:        245  HIT %:    99.0393  MISS %:   0.960709   MPKI: 0.001225
L2C TRANSLATION FROM L1D PREFETCHER ACCESS:    2958964  HIT:    2951674  MISS:       7290  HIT %:    99.7536  MISS %:    0.24637   MPKI: 0.03645
L2C PREFETCH  REQUESTED:          0  ISSUED:          0  USEFUL:     643960  USELESS:    4756380
L2C USEFUL LOAD PREFETCHES:     643960 PREFETCH ISSUED TO LOWER LEVEL:    5469619  ACCURACY: 11.7734
L2C TIMELY PREFETCHES:     643960 LATE PREFETCHES: 76626 DROPPED PREFETCHES: 0
L2C COMMIT LATE PREFETCHES: 0 MISSED OPPORTUNITY: 0 LATE IN PQ: 0 UNCOVERED: 0
L2C COMMIT LATE MSHR PREFETCHES: 0
L2C MPKI TOTAL: 111.019 MSHR LATE: 0.38313 PQ LATE: 0 COMMIT LATE: 0 MISSED OPPORTUNITY: 0 UNCOVERED: 0
L2C PREFETCHES SAME FILL-ORIGIN LEVEL: 4048358 DIFFERENT FILL-ORIGIN LEVEL: 0
L2C AVERAGE MISS LATENCY: 109.029 cycles
L2C AVERAGE MISS LATENCY LOAD: 98.9548 cycles
L2C AVERAGE MISS LATENCY PREFETCH: 149.514 cycles
L2C AVERAGE MSHR OCCUPANCY: 0.303308
L2C MSHR FULL: 0
L2C RQ	ACCESS:   34976989	FORWARD:          0	MERGED:          0	TO_CACHE:   34976987
L2C WQ	ACCESS:     150111	FORWARD:          2	MERGED:          0	TO_CACHE:     150111
L2C PQ	ACCESS:   32636939	FORWARD:          0	MERGED:       7235	TO_CACHE:   32629704

L2C Instructions Evicting Data 22
L2C Translations Evicting Data 7535
L2C Data Evicting Data 27654552
L2C Instructions Evicting Instructions 0
L2C Translations Evicting Instructions 0
L2C Data Evicting Instructions 22
L2C Instructions Evicting Translations 0
L2C Translations Evicting Translations 0
L2C Data Evicting Translations 7537
L2C Dense regions hint from L2: 0
154f9c6f93bc: 1
55f071adf510: 1
154f9c7d0230: 1
55f071ae100d: 1
154f9c6fd6e4: 1
154f9c6f19b9: 1
154f9c7d0247: 1
154f9c729951: 1
154f9c6bf230: 1
154f9c6fbef2: 1
154f9c6f93cc: 1
154f9c6f93c3: 1
154f9c74f143: 1
154f9c6bf040: 1
55f071ae102d: 1
154f9c6f9530: 1
154f9c7d0240: 1
154f9c6f95e5: 1
154f9c6f686b: 1
154f9c6fb0db: 1
154f9c6fb103: 1
154f9c6ff3b8: 1
154f9c6fccd6: 1
154f9c6fd1c6: 1
154f9c759578: 1
55f071ae103f: 1
154f9c6f967e: 1
154f9c6fa461: 1
154f9c6fdb9a: 1
154f9c6f967a: 1
154f9c6fbee7: 1
154f9c6ff760: 1
154f9c6f13c0: 1
154f9c74f646: 1
154f9c6fe682: 1
154f9c6f1944: 1
154f9c6f193a: 1
154f9c6f1340: 1
154f9c6fe6f2: 1
154f9c6f1396: 1
55f071ae0fe0: 1
154f9c7d0254: 1
154f9c6ff3c4: 1
154f9c6fd6d6: 1
154f9c6ff1c8: 1
154f9c7ce0b0: 1
154f9c6fef41: 1
154f9c6fdd70: 1
55f071ae0fee: 1
55f071ae0ff2: 1
154f9c6fe4ee: 1
154f9c6bf100: 1
154f9c6fe66c: 1
154f9c7d024b: 1
154f9c7d0264: 1
154f9c7d026f: 1
154f9c6fccdd: 1
154f9c6fe443: 1
154f9c6fd1d1: 1
154f9c6fef1c: 1
154f9c6fe400: 1
154f9c6fe3df: 1
55f071ae1000: 3
154f9c6fe4f2: 5
55f071ae1054: 282
55f071ae1075: 356
55f071ae107b: 360
55f071ae1050: 373
55f071ae1093: 612
55f071ae1060: 14665
55f071ae106a: 22187025
PSCL5 TOTAL     ACCESS:    2984326  HIT:    2984326  MISS:          0  HIT %:        100  MISS %:          0   MPKI: 0
PSCL5 Test counter:          0
PSCL5 LOAD TRANSLATION ACCESS:      25491  HIT:      25491  MISS:          0  HIT %:        100  MISS %:          0   MPKI: 0
PSCL5 TRANSLATION FROM L1D PREFETCHER ACCESS:    2958835  HIT:    2958835  MISS:          0  HIT %:        100  MISS %:          0   MPKI: 0
PSCL5 PREFETCH  REQUESTED:          0  ISSUED:          0  USEFUL:          0  USELESS:          0
PSCL5 USEFUL LOAD PREFETCHES:          0 PREFETCH ISSUED TO LOWER LEVEL:          0  ACCURACY: -nan
PSCL5 TIMELY PREFETCHES:          0 LATE PREFETCHES: 0 DROPPED PREFETCHES: 0
PSCL5 COMMIT LATE PREFETCHES: 0 MISSED OPPORTUNITY: 0 LATE IN PQ: 0 UNCOVERED: 0
PSCL5 COMMIT LATE MSHR PREFETCHES: 0
PSCL5 MPKI TOTAL: 0 MSHR LATE: 0 PQ LATE: 0 COMMIT LATE: 0 MISSED OPPORTUNITY: 0 UNCOVERED: 0
PSCL5 PREFETCHES SAME FILL-ORIGIN LEVEL: 0 DIFFERENT FILL-ORIGIN LEVEL: 0

PSCL4 TOTAL     ACCESS:    2984326  HIT:    2984326  MISS:          0  HIT %:        100  MISS %:          0   MPKI: 0
PSCL4 Test counter:          0
PSCL4 LOAD TRANSLATION ACCESS:      25491  HIT:      25491  MISS:          0  HIT %:        100  MISS %:          0   MPKI: 0
PSCL4 TRANSLATION FROM L1D PREFETCHER ACCESS:    2958835  HIT:    2958835  MISS:          0  HIT %:        100  MISS %:          0   MPKI: 0
PSCL4 PREFETCH  REQUESTED:          0  ISSUED:          0  USEFUL:          0  USELESS:          0
PSCL4 USEFUL LOAD PREFETCHES:          0 PREFETCH ISSUED TO LOWER LEVEL:          0  ACCURACY: -nan
PSCL4 TIMELY PREFETCHES:          0 LATE PREFETCHES: 0 DROPPED PREFETCHES: 0
PSCL4 COMMIT LATE PREFETCHES: 0 MISSED OPPORTUNITY: 0 LATE IN PQ: 0 UNCOVERED: 0
PSCL4 COMMIT LATE MSHR PREFETCHES: 0
PSCL4 MPKI TOTAL: 0 MSHR LATE: 0 PQ LATE: 0 COMMIT LATE: 0 MISSED OPPORTUNITY: 0 UNCOVERED: 0
PSCL4 PREFETCHES SAME FILL-ORIGIN LEVEL: 0 DIFFERENT FILL-ORIGIN LEVEL: 0

PSCL3 TOTAL     ACCESS:    2984326  HIT:    2984326  MISS:          0  HIT %:        100  MISS %:          0   MPKI: 0
PSCL3 Test counter:          0
PSCL3 LOAD TRANSLATION ACCESS:      25491  HIT:      25491  MISS:          0  HIT %:        100  MISS %:          0   MPKI: 0
PSCL3 TRANSLATION FROM L1D PREFETCHER ACCESS:    2958835  HIT:    2958835  MISS:          0  HIT %:        100  MISS %:          0   MPKI: 0
PSCL3 PREFETCH  REQUESTED:          0  ISSUED:          0  USEFUL:          0  USELESS:          0
PSCL3 USEFUL LOAD PREFETCHES:          0 PREFETCH ISSUED TO LOWER LEVEL:          0  ACCURACY: -nan
PSCL3 TIMELY PREFETCHES:          0 LATE PREFETCHES: 0 DROPPED PREFETCHES: 0
PSCL3 COMMIT LATE PREFETCHES: 0 MISSED OPPORTUNITY: 0 LATE IN PQ: 0 UNCOVERED: 0
PSCL3 COMMIT LATE MSHR PREFETCHES: 0
PSCL3 MPKI TOTAL: 0 MSHR LATE: 0 PQ LATE: 0 COMMIT LATE: 0 MISSED OPPORTUNITY: 0 UNCOVERED: 0
PSCL3 PREFETCHES SAME FILL-ORIGIN LEVEL: 0 DIFFERENT FILL-ORIGIN LEVEL: 0

PSCL2 TOTAL     ACCESS:    2978279  HIT:    2978192  MISS:         87  HIT %:    99.9971  MISS %: 0.00292115   MPKI: 0.000435
PSCL2 Test counter:          0
PSCL2 LOAD TRANSLATION ACCESS:      25520  HIT:      25433  MISS:         87  HIT %:    99.6591  MISS %:   0.340909   MPKI: 0.000435
PSCL2 TRANSLATION FROM L1D PREFETCHER ACCESS:    2952759  HIT:    2952759  MISS:          0  HIT %:        100  MISS %:          0   MPKI: 0
PSCL2 PREFETCH  REQUESTED:          0  ISSUED:          0  USEFUL:          0  USELESS:          0
PSCL2 USEFUL LOAD PREFETCHES:          0 PREFETCH ISSUED TO LOWER LEVEL:          0  ACCURACY: -nan
PSCL2 TIMELY PREFETCHES:          0 LATE PREFETCHES: 0 DROPPED PREFETCHES: 0
PSCL2 COMMIT LATE PREFETCHES: 0 MISSED OPPORTUNITY: 0 LATE IN PQ: 0 UNCOVERED: 0
PSCL2 COMMIT LATE MSHR PREFETCHES: 0
PSCL2 MPKI TOTAL: 0 MSHR LATE: 0 PQ LATE: 0 COMMIT LATE: 0 MISSED OPPORTUNITY: 0 UNCOVERED: 0
PSCL2 PREFETCHES SAME FILL-ORIGIN LEVEL: 0 DIFFERENT FILL-ORIGIN LEVEL: 0

LLC TOTAL     ACCESS:   27806429  HIT:   13336195  MISS:   14470234  HIT %:    47.9608  MISS %:    52.0392   MPKI: 72.3512
LLC Test counter:          0
LLC LOAD      ACCESS:   22127117  HIT:   12419727  MISS:    9707390  HIT %:     56.129  MISS %:     43.871   MPKI: 48.5369
LLC RFO       ACCESS:      65397  HIT:       1903  MISS:      63494  HIT %:    2.90992  MISS %:    97.0901   MPKI: 0.31747
LLC PREFETCH  ACCESS:    5469619  HIT:     776376  MISS:    4693243  HIT %:    14.1943  MISS %:    85.8057   MPKI: 23.4662
LLC WRITEBACK ACCESS:     136761  HIT:     136643  MISS:        118  HIT %:    99.9137  MISS %:  0.0862819   MPKI: 0.00059
LLC LOAD TRANSLATION ACCESS:        245  HIT:          0  MISS:        245  HIT %:          0  MISS %:        100   MPKI: 0.001225
LLC TRANSLATION FROM L1D PREFETCHER ACCESS:       7290  HIT:       1546  MISS:       5744  HIT %:    21.2071  MISS %:    78.7929   MPKI: 0.02872
LLC PREFETCH  REQUESTED:          0  ISSUED:          0  USEFUL:     403211  USELESS:    4295842
LLC USEFUL LOAD PREFETCHES:     403211 PREFETCH ISSUED TO LOWER LEVEL:    4693243  ACCURACY: 8.59131
LLC TIMELY PREFETCHES:     403211 LATE PREFETCHES: 0 DROPPED PREFETCHES: 0
LLC COMMIT LATE PREFETCHES: 0 MISSED OPPORTUNITY: 0 LATE IN PQ: 0 UNCOVERED: 0
LLC COMMIT LATE MSHR PREFETCHES: 0
LLC MPKI TOTAL: 48.5369 MSHR LATE: 0 PQ LATE: 0 COMMIT LATE: 0 MISSED OPPORTUNITY: 0 UNCOVERED: 0
LLC PREFETCHES SAME FILL-ORIGIN LEVEL: 0 DIFFERENT FILL-ORIGIN LEVEL: 0
LLC AVERAGE MISS LATENCY: 151.44 cycles
LLC AVERAGE MISS LATENCY LOAD: 157.349 cycles
LLC AVERAGE MISS LATENCY PREFETCH: 139.092 cycles
LLC AVERAGE MSHR OCCUPANCY: 0.164718
LLC MSHR FULL: 0
LLC RQ	ACCESS:   22200049	FORWARD:          0	MERGED:          0	TO_CACHE:   22200049
LLC WQ	ACCESS:     136761	FORWARD:          0	MERGED:          0	TO_CACHE:     136761
LLC PQ	ACCESS:    5469619	FORWARD:          0	MERGED:          0	TO_CACHE:    5469619

LLC Dense regions hint to LLC: 0
154f9c6f93bc: 1
55f071adf510: 1
154f9c7d0230: 1
55f071ae100d: 1
154f9c6fd6e4: 1
154f9c6f19b9: 1
154f9c7d0247: 1
154f9c729951: 1
154f9c6bf230: 1
154f9c6fbef2: 1
154f9c6f93cc: 1
154f9c6f93c3: 1
154f9c74f143: 1
154f9c6bf040: 1
55f071ae102d: 1
154f9c6f9530: 1
154f9c7d0240: 1
154f9c6f95e5: 1
154f9c6f686b: 1
154f9c6fb0db: 1
154f9c6fb103: 1
154f9c6ff3b8: 1
154f9c6fccd6: 1
154f9c6fd1c6: 1
154f9c759578: 1
55f071ae103f: 1
154f9c6f967e: 1
154f9c6fa461: 1
154f9c6fdb9a: 1
154f9c6f967a: 1
154f9c6fbee7: 1
154f9c6ff760: 1
154f9c6f13c0: 1
154f9c74f646: 1
154f9c6fe682: 1
154f9c6f1944: 1
154f9c6f193a: 1
154f9c6f1340: 1
154f9c6fe6f2: 1
154f9c6f1396: 1
55f071ae0fe0: 1
154f9c7d0254: 1
154f9c6ff3c4: 1
154f9c6fd6d6: 1
154f9c6ff1c8: 1
154f9c7ce0b0: 1
154f9c6fef41: 1
154f9c6fdd70: 1
55f071ae0fee: 1
55f071ae0ff2: 1
154f9c6fe4ee: 1
154f9c6bf100: 1
154f9c6fe66c: 1
154f9c7d024b: 1
154f9c7d0264: 1
154f9c7d026f: 1
154f9c6fccdd: 1
154f9c6fe443: 1
154f9c6fd1d1: 1
154f9c6fef1c: 1
154f9c6fe400: 1
154f9c6fe3df: 1
55f071ae1000: 3
154f9c6fe4f2: 5
55f071ae1075: 32
55f071ae1054: 33
55f071ae1050: 44
55f071ae107b: 45
55f071ae1093: 173
55f071ae1060: 14665
55f071ae106a: 9692328

RAW hits: 19
Loads Generated: 77353692
Loads sent to L1D: 77353672
Stores Generated: 3300237
Stores sent to L1D: 3300237
Major fault: 0 Minor fault: 34894
Allocated PAGES: 34894
Total Load insts: 95645111
Total Non-spec loads: 44615049
Percentage of speculative loads: 53.3535
L1D response latency: 83.8103 cycles
Load retirement latency: 101.686 cycles

LATENCY_FILL: 83.6688 31909607

DRAM Statistics
 CHANNEL 0
 RQ ROW_BUFFER_HIT:    3431196  ROW_BUFFER_MISS:   11038919
 DBUS_CONGESTED:       1158
 WQ ROW_BUFFER_HIT:      31600  ROW_BUFFER_MISS:     104642  FULL:          0

 AVG_CONGESTED_CYCLE: 4
 All warmup complete: 2
Channel 0 Bank busy for read cycles: 0
Channel 0 Bank busy for write cycles: 0
Channel 0
Rank 0
0banks busy for read cycles: 1879540648
0banks busy for write cycles: 66444
1banks busy for read cycles: 1354725612
1banks busy for write cycles: 13910843
2banks busy for read cycles: 136555343
2banks busy for write cycles: 1245060
3banks busy for read cycles: 34661619
3banks busy for write cycles: 407686
4banks busy for read cycles: 8642796
4banks busy for write cycles: 242993
5banks busy for read cycles: 3391295
5banks busy for write cycles: 127111
6banks busy for read cycles: 1564689
6banks busy for write cycles: 130860
7banks busy for read cycles: 774881
7banks busy for write cycles: 213780
8banks busy for read cycles: 3667301
8banks busy for write cycles: 1841103

CPU 0 Branch Prediction Accuracy: 96.9587% MPKI: 5.6305 Average ROB Occupancy at Mispredict: 137.879
Branch types
NOT_BRANCH: 162972817 81.4864%
BRANCH_DIRECT_JUMP: 66 3.3e-05%
BRANCH_INDIRECT: 4 2e-06%
BRANCH_CONDITIONAL: 37027012 18.5135%
BRANCH_DIRECT_CALL: 28 1.4e-05%
BRANCH_INDIRECT_CALL: 5 2.5e-06%
BRANCH_RETURN: 33 1.65e-05%
BRANCH_OTHER: 0 0%

DRAM PAGES: 1048576
Allocated PAGES: 34894
