
*** ChampSim Multicore Out-of-Order Simulator ***

Warmup Instructions: 50000000
Simulation Instructions: 200000000
Number of CPUs: 1
LLC sets: 2048
LLC ways: 16
Secure Berti: OFF
Berti: OFF
Berti Fill: OFF
On commit prefetching: OFF
L2 LLC Bypass speculative loads: OFF
Off-chip DRAM Size: 4096 MB Channels: 1 Width: 64-bit Data Rate: 6400 MT/s
CPU 0 runs /home/sumon/secure_berti/Berti_Baseline/../../traces/gap/sssp-10.trace.gz
.gz
BTB has LRU replacement policy
ITLB has LRU replacement policy
DTLB has LRU replacement policy
STLB has LRU replacement policy
L1I has LRU replacement policy
History Sets: 8
History Ways: 16
BERTI Size: 16
BERTI Stride Size: 16
L1D has LRU replacement policy
L2C has LRU replacement policy
LLC has LRU replacement policy
Heartbeat CPU 0 instructions: 10000000 cycles: 3081641 heartbeat IPC: 3.24502 cumulative IPC: 3.24502 (Simulation time: 0 hr 0 min 18 sec) 
Heartbeat CPU 0 instructions: 20000003 cycles: 6134862 heartbeat IPC: 3.27523 cumulative IPC: 3.26006 (Simulation time: 0 hr 0 min 51 sec) 
Heartbeat CPU 0 instructions: 30000001 cycles: 9208817 heartbeat IPC: 3.25314 cumulative IPC: 3.25775 (Simulation time: 0 hr 1 min 27 sec) 
Heartbeat CPU 0 instructions: 40000002 cycles: 12295163 heartbeat IPC: 3.24008 cumulative IPC: 3.25331 (Simulation time: 0 hr 2 min 2 sec) 
Heartbeat CPU 0 instructions: 50000001 cycles: 15387303 heartbeat IPC: 3.23401 cumulative IPC: 3.24943 (Simulation time: 0 hr 2 min 39 sec) 

Warmup complete CPU 0 instructions: 50000001 cycles: 15387303 (Simulation time: 0 hr 2 min 39 sec) 

Heartbeat CPU 0 instructions: 60000000 cycles: 45059935 heartbeat IPC: 0.337011 cumulative IPC: 0.337011 (Simulation time: 0 hr 3 min 41 sec) 
Heartbeat CPU 0 instructions: 70000000 cycles: 73857602 heartbeat IPC: 0.34725 cumulative IPC: 0.342054 (Simulation time: 0 hr 4 min 49 sec) 
Heartbeat CPU 0 instructions: 80000001 cycles: 102050390 heartbeat IPC: 0.354701 cumulative IPC: 0.346168 (Simulation time: 0 hr 5 min 58 sec) 
Heartbeat CPU 0 instructions: 90000000 cycles: 128851821 heartbeat IPC: 0.373114 cumulative IPC: 0.352533 (Simulation time: 0 hr 7 min 8 sec) 
Heartbeat CPU 0 instructions: 100000000 cycles: 156072400 heartbeat IPC: 0.367369 cumulative IPC: 0.355404 (Simulation time: 0 hr 8 min 19 sec) 
Heartbeat CPU 0 instructions: 110000000 cycles: 182818533 heartbeat IPC: 0.373886 cumulative IPC: 0.358356 (Simulation time: 0 hr 9 min 30 sec) 
Heartbeat CPU 0 instructions: 120000003 cycles: 209232639 heartbeat IPC: 0.378586 cumulative IPC: 0.361113 (Simulation time: 0 hr 10 min 26 sec) 
Heartbeat CPU 0 instructions: 130000002 cycles: 235396886 heartbeat IPC: 0.382201 cumulative IPC: 0.363621 (Simulation time: 0 hr 11 min 6 sec) 
Heartbeat CPU 0 instructions: 140000002 cycles: 261363331 heartbeat IPC: 0.385112 cumulative IPC: 0.365889 (Simulation time: 0 hr 11 min 48 sec) 
Heartbeat CPU 0 instructions: 150000000 cycles: 286928214 heartbeat IPC: 0.391162 cumulative IPC: 0.368269 (Simulation time: 0 hr 12 min 29 sec) 
Heartbeat CPU 0 instructions: 160000001 cycles: 312592782 heartbeat IPC: 0.389642 cumulative IPC: 0.370114 (Simulation time: 0 hr 13 min 11 sec) 
Heartbeat CPU 0 instructions: 170000002 cycles: 338080074 heartbeat IPC: 0.392352 cumulative IPC: 0.371871 (Simulation time: 0 hr 13 min 52 sec) 
Heartbeat CPU 0 instructions: 180000001 cycles: 363395053 heartbeat IPC: 0.395023 cumulative IPC: 0.373555 (Simulation time: 0 hr 14 min 34 sec) 
Heartbeat CPU 0 instructions: 190000002 cycles: 388076125 heartbeat IPC: 0.405169 cumulative IPC: 0.375648 (Simulation time: 0 hr 15 min 13 sec) 
Heartbeat CPU 0 instructions: 200000003 cycles: 412975165 heartbeat IPC: 0.401622 cumulative IPC: 0.377275 (Simulation time: 0 hr 15 min 50 sec) 
Heartbeat CPU 0 instructions: 210000003 cycles: 438068586 heartbeat IPC: 0.398511 cumulative IPC: 0.378536 (Simulation time: 0 hr 16 min 25 sec) 
Heartbeat CPU 0 instructions: 220000000 cycles: 463002217 heartbeat IPC: 0.401065 cumulative IPC: 0.379791 (Simulation time: 0 hr 17 min 1 sec) 
Heartbeat CPU 0 instructions: 230000001 cycles: 487646963 heartbeat IPC: 0.405766 cumulative IPC: 0.381146 (Simulation time: 0 hr 17 min 35 sec) 
Heartbeat CPU 0 instructions: 240000001 cycles: 512367239 heartbeat IPC: 0.404526 cumulative IPC: 0.382309 (Simulation time: 0 hr 18 min 7 sec) 
Heartbeat CPU 0 instructions: 250000000 cycles: 537088565 heartbeat IPC: 0.404509 cumulative IPC: 0.383361 (Simulation time: 0 hr 18 min 40 sec) 
Finished CPU 0 instructions: 200000003 cycles: 521701263 cumulative IPC: 0.383361 (Simulation time: 0 hr 18 min 40 sec) 

ChampSim completed all CPUs

Region of Interest Statistics

CPU 0 cumulative IPC: 0.383361 instructions: 200000003 cycles: 521701263
ITLB TOTAL     ACCESS:   24385067  HIT:   24385067  MISS:          0  HIT %:        100  MISS %:          0   MPKI: 0
ITLB Test counter:          0
ITLB LOAD TRANSLATION ACCESS:   24385067  HIT:   24385067  MISS:          0  HIT %:        100  MISS %:          0   MPKI: 0
ITLB PREFETCH  REQUESTED:          0  ISSUED:          0  USEFUL:          0  USELESS:          0
ITLB USEFUL LOAD PREFETCHES:          0 PREFETCH ISSUED TO LOWER LEVEL:          0  ACCURACY: -nan
ITLB TIMELY PREFETCHES:          0 LATE PREFETCHES: 0 DROPPED PREFETCHES: 0
ITLB COMMIT LATE PREFETCHES: 0 MISSED OPPORTUNITY: 0 LATE IN PQ: 0 UNCOVERED: 0
ITLB COMMIT LATE MSHR PREFETCHES: 0
ITLB MPKI TOTAL: 0 MSHR LATE: 0 PQ LATE: 0 COMMIT LATE: 0 MISSED OPPORTUNITY: 0 UNCOVERED: 0
ITLB PREFETCHES SAME FILL-ORIGIN LEVEL: 0 DIFFERENT FILL-ORIGIN LEVEL: 0
ITLB AVERAGE MISS LATENCY: -nan cycles
ITLB AVERAGE MISS LATENCY LOAD: -nan cycles
ITLB AVERAGE MISS LATENCY PREFETCH: -nan cycles
ITLB AVERAGE MSHR OCCUPANCY: 0
ITLB MSHR FULL: 0
ITLB RQ	ACCESS:   25049336	FORWARD:          0	MERGED:     664269	TO_CACHE:   24385067

DTLB TOTAL     ACCESS:   43349529  HIT:   38674524  MISS:    4675005  HIT %:    89.2156  MISS %:    10.7844   MPKI: 23.375
DTLB Test counter:          0
DTLB LOAD TRANSLATION ACCESS:   43349529  HIT:   38674524  MISS:    4675005  HIT %:    89.2156  MISS %:    10.7844   MPKI: 23.375
DTLB PREFETCH  REQUESTED:          0  ISSUED:          0  USEFUL:          0  USELESS:          0
DTLB USEFUL LOAD PREFETCHES:          0 PREFETCH ISSUED TO LOWER LEVEL:          0  ACCURACY: -nan
DTLB TIMELY PREFETCHES:          0 LATE PREFETCHES: 0 DROPPED PREFETCHES: 0
DTLB COMMIT LATE PREFETCHES: 0 MISSED OPPORTUNITY: 0 LATE IN PQ: 0 UNCOVERED: 0
DTLB COMMIT LATE MSHR PREFETCHES: 0
DTLB MPKI TOTAL: 0 MSHR LATE: 0 PQ LATE: 0 COMMIT LATE: 0 MISSED OPPORTUNITY: 0 UNCOVERED: 0
DTLB PREFETCHES SAME FILL-ORIGIN LEVEL: 0 DIFFERENT FILL-ORIGIN LEVEL: 0
DTLB AVERAGE MISS LATENCY: 11.5485 cycles
DTLB AVERAGE MISS LATENCY LOAD: -nan cycles
DTLB AVERAGE MISS LATENCY PREFETCH: -nan cycles
DTLB AVERAGE MSHR OCCUPANCY: 0.174682
DTLB MSHR FULL: 1.3793e-07
DTLB RQ	ACCESS:   45640912	FORWARD:          0	MERGED:    2140639	TO_CACHE:   43500273

STLB TOTAL     ACCESS:   10137767  HIT:   10073759  MISS:      64008  HIT %:    99.3686  MISS %:   0.631382   MPKI: 0.32004
STLB Test counter:          0
STLB LOAD TRANSLATION ACCESS:    4675005  HIT:    4615509  MISS:      59496  HIT %:    98.7274  MISS %:    1.27264   MPKI: 0.29748
STLB TRANSLATION FROM L1D PREFETCHER ACCESS:    5462762  HIT:    5458250  MISS:       4512  HIT %:    99.9174  MISS %:  0.0825956   MPKI: 0.02256
STLB PREFETCH  REQUESTED:          0  ISSUED:          0  USEFUL:       4337  USELESS:        170
STLB USEFUL LOAD PREFETCHES:       4337 PREFETCH ISSUED TO LOWER LEVEL:          0  ACCURACY: inf
STLB TIMELY PREFETCHES:       4337 LATE PREFETCHES: 4403 DROPPED PREFETCHES: 2737399
STLB COMMIT LATE PREFETCHES: 0 MISSED OPPORTUNITY: 0 LATE IN PQ: 0 UNCOVERED: 0
STLB COMMIT LATE MSHR PREFETCHES: 0
STLB MPKI TOTAL: 0 MSHR LATE: 0.022015 PQ LATE: 0 COMMIT LATE: 0 MISSED OPPORTUNITY: 0 UNCOVERED: 0
STLB PREFETCHES SAME FILL-ORIGIN LEVEL: 0 DIFFERENT FILL-ORIGIN LEVEL: 0
STLB AVERAGE MISS LATENCY: 176.636 cycles
STLB AVERAGE MISS LATENCY LOAD: -nan cycles
STLB AVERAGE MISS LATENCY PREFETCH: -nan cycles
STLB AVERAGE MSHR OCCUPANCY: 0.241869
STLB MSHR FULL: 0
STLB RQ	ACCESS:   39093040	FORWARD:          0	MERGED:   25928543	TO_CACHE:   13164497

STLB Hit, L1D data hit: 0
STLB Hit, L2C data hit: 0
STLB Hit, LLC data hit: 0
STLB Hit, LLC data miss: 0
STLB STLB hints to L2: 0
L1D TOTAL     ACCESS:   70632765  HIT:   59669826  MISS:   10962939  HIT %:     84.479  MISS %:     15.521   MPKI: 54.8147
L1D Test counter:          0
L1D LOAD      ACCESS:   43234583  HIT:   34012271  MISS:    9412562  HIT %:    78.6691  MISS %:    21.3309   MPKI: 46.1116
L1D RFO       ACCESS:    2031876  HIT:    1558570  MISS:     473306  HIT %:     76.706  MISS %:     23.294   MPKI: 2.36653
L1D PREFETCH  ACCESS:   25366306  HIT:   24098985  MISS:    1267321  HIT %:    95.0039  MISS %:    4.99608   MPKI: 6.3366
L1D PREFETCH  REQUESTED:   85594449  ISSUED:   85392993  USEFUL:    1138983  USELESS:     128352
L1D USEFUL LOAD PREFETCHES:    1138983 PREFETCH ISSUED TO LOWER LEVEL:    5068437  ACCURACY: 22.4721
L1D TIMELY PREFETCHES:    1138983 LATE PREFETCHES: 20103 DROPPED PREFETCHES: 4355816
L1D COMMIT LATE PREFETCHES: 0 MISSED OPPORTUNITY: 0 LATE IN PQ: 57458 UNCOVERED: 0
L1D COMMIT LATE MSHR PREFETCHES: 0
L1D MPKI TOTAL: 47.0628 MSHR LATE: 0.100515 PQ LATE: 0.28729 COMMIT LATE: 0 MISSED OPPORTUNITY: 0 UNCOVERED: 0
L1D PREFETCHES SAME FILL-ORIGIN LEVEL: 1287424 DIFFERENT FILL-ORIGIN LEVEL: 3781013
L1D AVERAGE MISS LATENCY: 96.9929 cycles
L1D AVERAGE MISS LATENCY LOAD: 89.9866 cycles
L1D AVERAGE MISS LATENCY PREFETCH: 156.277 cycles
L1D AVERAGE MSHR OCCUPANCY: 2.07356
L1D MSHR FULL: 0.0265708
L1D RQ	ACCESS:   76737290	FORWARD:          0	MERGED:   33307786	TO_CACHE:   43424832
L1D WQ	ACCESS:    2216772	FORWARD:       4672	MERGED:        692	TO_CACHE:    2216080
L1D PQ	ACCESS:   50974958	FORWARD:          0	MERGED:   16556923	TO_CACHE:   34418035

L1D UNIQUE REGIONS ACCESSED: 0
L1D REGIONS CONFLICTS: 0
L1D Cross Page Prefetch Requests: 10417831
L1D Same Page Prefetch Requests: 53324260
L1D ROI Sum of L1D PQ occupancy: 644124396
L1D PREFETCHES PUSHED FROM L2C: 0
56546d1c24af: 1
56546d1c2485: 1
56546d1c2442: 1
7ffd9c71bd75: 1
56546d1c25c5: 1
14aace2a75d0: 1
56546d1c0710: 1
14aace2a758f: 1
14aace2a7646: 1
56546d1c24aa: 1
56546d1c248c: 1
56546d1c21c5: 1
14aace2a75c5: 2
14aace2a7477: 2
14aace2a75d4: 2
14aace2a76c3: 2
14aace284457: 3
14aace28120e: 3
14aace280913: 4
14aace283d67: 5
56546d1c2568: 5
14aace281252: 5
56546d1c2322: 6
14aace28124c: 6
14aace28444d: 7
14aace28445d: 7
14aace280f2b: 7
14aace2843a4: 7
14aace28113f: 8
14aace2a764b: 8
14aace2a7650: 9
14aace28121e: 9
14aace28439a: 9
14aace283d3b: 11
14aace283ccc: 12
56546d1c2585: 12
14aace280795: 12
14aace283cf9: 13
14aace28438c: 14
14aace28115a: 14
14aace283e41: 15
14aace28320e: 15
14aace283207: 16
14aace2831f4: 16
14aace280f19: 17
14aace280e6c: 19
14aace28431c: 19
14aace283a12: 20
14aace280f46: 20
56546d1c24d3: 22
14aace28112d: 23
14aace28062d: 23
14aace2a7641: 23
14aace281106: 23
14aace283d4d: 24
14aace281135: 26
14aace2a763e: 27
14aace283d43: 27
14aace2a7672: 29
14aace2a7686: 30
56546d1c2317: 30
14aace280ebb: 30
14aace280e97: 30
14aace280867: 33
14aace2810ec: 33
14aace280896: 33
14aace280eb2: 46
14aace2a774a: 46
14aace283d7f: 46
14aace2839a6: 47
14aace283cde: 47
56546d1c2539: 47
56546d1c2327: 47
14aace283a09: 47
14aace283971: 47
14aace28399f: 47
56546d1c232f: 48
14aace281174: 50
14aace28110a: 51
14aace283c4f: 53
14aace283a27: 53
14aace283c61: 53
14aace283c95: 53
14aace283cb6: 56
14aace283c45: 56
14aace283cd4: 57
14aace2a76cb: 57
14aace2810e6: 57
14aace280c11: 58
14aace2a76cf: 60
14aace283c88: 60
14aace2a76c7: 63
14aace2805a7: 67
14aace280c15: 75
14aace280ef2: 77
14aace281123: 77
14aace28398d: 78
14aace280f10: 88
14aace283c6b: 98
14aace280bf5: 101
14aace2810f0: 110
14aace2808f4: 139
14aace28060d: 163
14aace2a76d3: 178
14aace2808e8: 195
14aace28065b: 205
14aace280f73: 211
14aace2a76f6: 226
14aace2a76c4: 232
14aace28058f: 234
14aace283d1a: 238
14aace2804f8: 243
14aace283e55: 243
14aace280574: 243
14aace2830e3: 243
14aace280323: 244
14aace2805f4: 247
14aace2830af: 256
14aace2830cf: 256
14aace2830c1: 257
14aace283076: 257
56546d1c0720: 257
14aacec1d3f0: 257
14aace283961: 257
14aacec1cb30: 258
56546d1c0580: 258
14aace28307d: 258
14aace283978: 258
56546d1c05b0: 258
14aace280581: 273
14aace2a7682: 518
14aace2a767f: 1164
56546d1c21eb: 1607
14aace2a768a: 2807
56546d1c21e3: 3222
56546d1c21b8: 3611
14aace2a770e: 10149
14aace2a7706: 12644
56546d1c21e7: 12716
14aace2a7703: 12752
14aace2a770a: 12815
56546d1c21d5: 12977
56546d1c22dc: 26108
56546d1c2200: 37313
56546d1c22d8: 204929
56546d1c2226: 8857174
L1I TOTAL     ACCESS:   25049336  HIT:   25049336  MISS:          0  HIT %:        100  MISS %:          0   MPKI: 0
L1I Test counter:          0
L1I LOAD      ACCESS:   25049336  HIT:   25049336  MISS:          0  HIT %:        100  MISS %:          0   MPKI: 0
L1I PREFETCH  REQUESTED:          0  ISSUED:          0  USEFUL:          0  USELESS:          0
L1I USEFUL LOAD PREFETCHES:          0 PREFETCH ISSUED TO LOWER LEVEL:          0  ACCURACY: -nan
L1I TIMELY PREFETCHES:          0 LATE PREFETCHES: 0 DROPPED PREFETCHES: 0
L1I COMMIT LATE PREFETCHES: 0 MISSED OPPORTUNITY: 0 LATE IN PQ: 0 UNCOVERED: 0
L1I COMMIT LATE MSHR PREFETCHES: 0
L1I MPKI TOTAL: 0 MSHR LATE: 0 PQ LATE: 0 COMMIT LATE: 0 MISSED OPPORTUNITY: 0 UNCOVERED: 0
L1I PREFETCHES SAME FILL-ORIGIN LEVEL: 0 DIFFERENT FILL-ORIGIN LEVEL: 0
L1I AVERAGE MISS LATENCY: -nan cycles
L1I AVERAGE MISS LATENCY LOAD: -nan cycles
L1I AVERAGE MISS LATENCY PREFETCH: -nan cycles
L1I AVERAGE MSHR OCCUPANCY: 0
L1I MSHR FULL: 0
L1I RQ	ACCESS:   38892742	FORWARD:          0	MERGED:   13843406	TO_CACHE:   25049336

BTB TOTAL     ACCESS:   29056031  HIT:   29055886  MISS:        145  HIT %:    99.9995  MISS %: 0.000499036   MPKI: 0.000725
BTB Test counter:          0
BTB BRANCH_DIRECT_JUMP	ACCESS:    9225403  HIT:    9225362  MISS:         41
BTB BRANCH_INDIRECT	ACCESS:          0  HIT:          0  MISS:          0
BTB BRANCH_CONDITIONAL	ACCESS:   19828000  HIT:   19827919  MISS:         81
BTB BRANCH_DIRECT_CALL	ACCESS:       1314  HIT:       1305  MISS:          9
BTB BRANCH_INDIRECT_CALL	ACCESS:          0  HIT:          0  MISS:          0
BTB BRANCH_RETURN	ACCESS:       1314  HIT:       1300  MISS:         14
BTB BRANCH_OTHER ACCESS:          0  HIT:          0  MISS:          0

L2C TOTAL     ACCESS:   18294332  HIT:    9038287  MISS:    9256045  HIT %:    49.4048  MISS %:    50.5952   MPKI: 46.2802
L2C Test counter:          0
L2C LOAD      ACCESS:    9202208  HIT:    2416932  MISS:    6785278  HIT %:    26.2647  MISS %:    73.7353   MPKI: 33.9264
L2C DATA LOAD MPKI: 33.9264
L2C INSTRUCTION LOAD MPKI: 0
L2C RFO       ACCESS:     473301  HIT:     296757  MISS:     176544  HIT %:    62.6994  MISS %:    37.3006   MPKI: 0.88272
L2C PREFETCH  ACCESS:    4464489  HIT:    2222400  MISS:    2242089  HIT %:    49.7795  MISS %:    50.2205   MPKI: 11.2104
L2C DATA PREFETCH MPKI: 11.2104
L2C INSTRUCTION PREFETCH MPKI: 0
L2C WRITEBACK ACCESS:    1329465  HIT:    1325867  MISS:       3598  HIT %:    99.7294  MISS %:   0.270635   MPKI: 0.01799
L2C LOAD TRANSLATION ACCESS:      71645  HIT:      28053  MISS:      43592  HIT %:    39.1556  MISS %:    60.8444   MPKI: 0.21796
L2C TRANSLATION FROM L1D PREFETCHER ACCESS:    2753224  HIT:    2748278  MISS:       4946  HIT %:    99.8204  MISS %:   0.179644   MPKI: 0.02473
L2C PREFETCH  REQUESTED:          0  ISSUED:          0  USEFUL:     200832  USELESS:    2047569
L2C USEFUL LOAD PREFETCHES:     200832 PREFETCH ISSUED TO LOWER LEVEL:    2292170  ACCURACY: 8.76165
L2C TIMELY PREFETCHES:     200832 LATE PREFETCHES: 50080 DROPPED PREFETCHES: 0
L2C COMMIT LATE PREFETCHES: 0 MISSED OPPORTUNITY: 0 LATE IN PQ: 0 UNCOVERED: 0
L2C COMMIT LATE MSHR PREFETCHES: 0
L2C MPKI TOTAL: 33.9264 MSHR LATE: 0.2504 PQ LATE: 0 COMMIT LATE: 0 MISSED OPPORTUNITY: 0 UNCOVERED: 0
L2C PREFETCHES SAME FILL-ORIGIN LEVEL: 1347215 DIFFERENT FILL-ORIGIN LEVEL: 0
L2C AVERAGE MISS LATENCY: 120.547 cycles
L2C AVERAGE MISS LATENCY LOAD: 101.691 cycles
L2C AVERAGE MISS LATENCY PREFETCH: 173.736 cycles
L2C AVERAGE MSHR OCCUPANCY: 2.4102
L2C MSHR FULL: 5.29556e-05
L2C RQ	ACCESS:   12500386	FORWARD:          0	MERGED:          0	TO_CACHE:   12500380
L2C WQ	ACCESS:    1329465	FORWARD:          7	MERGED:          0	TO_CACHE:    1329465
L2C PQ	ACCESS:    5068431	FORWARD:          0	MERGED:       1914	TO_CACHE:    5066516

L2C Instructions Evicting Data 0
L2C Translations Evicting Data 48242
L2C Data Evicting Data 9155709
L2C Instructions Evicting Instructions 0
L2C Translations Evicting Instructions 0
L2C Data Evicting Instructions 0
L2C Instructions Evicting Translations 0
L2C Translations Evicting Translations 296
L2C Data Evicting Translations 48200
L2C Dense regions hint from L2: 0
56546d1c2442: 1
56546d1c21c5: 1
56546d1c0710: 1
14aace2a7646: 1
14aace2a758f: 1
14aace2a75d0: 1
56546d1c25c5: 1
7ffd9c71bd75: 1
14aace280913: 2
14aace2a75d4: 2
56546d1c2539: 2
14aace2a7477: 2
14aace2a75c5: 2
14aace284457: 3
14aace28120e: 3
14aace283a27: 4
14aace283d67: 4
56546d1c24d3: 4
14aace283c61: 4
14aace283c4f: 4
14aace283c45: 4
14aace283c95: 4
14aace281252: 5
14aace283d7f: 5
14aace28445d: 5
14aace2843a4: 6
14aace28124c: 6
14aace280f2b: 7
14aace28444d: 7
14aace2a764b: 8
14aace28113f: 8
14aace28439a: 8
56546d1c232f: 9
14aace28121e: 9
14aace2a7641: 9
14aace2a7650: 9
14aace283c88: 10
14aace283d3b: 10
14aace280795: 12
14aace283cf9: 12
14aace283ccc: 12
14aace28438c: 13
14aace28115a: 14
14aace283e41: 15
14aace28320e: 15
14aace2831f4: 16
14aace280f19: 16
14aace283207: 16
14aace280e6c: 17
14aace28431c: 19
14aace280f46: 19
14aace283a12: 20
14aace281106: 21
14aace2a7672: 21
14aace28112d: 22
14aace28062d: 23
14aace280867: 23
14aace283d4d: 24
14aace281135: 25
14aace280896: 25
14aace283d43: 26
14aace2a7686: 26
14aace2a763e: 27
14aace280e97: 29
14aace280ebb: 29
14aace2810ec: 32
14aace28398d: 34
14aace283cde: 44
14aace28110a: 46
14aace280eb2: 46
56546d1c2327: 47
14aace281174: 48
14aace283cb6: 50
14aace283cd4: 52
14aace2805a7: 53
14aace283c6b: 54
14aace2810e6: 55
14aace280c11: 55
14aace2a76cb: 57
14aace2a76cf: 60
14aace2a76c7: 63
14aace280c15: 73
14aace280ef2: 73
14aace281123: 74
14aace2a76d3: 76
14aace280f10: 83
14aace280bf5: 94
14aace2810f0: 102
14aace2808f4: 131
14aace28060d: 154
14aace28065b: 174
14aace280f73: 179
14aace2808e8: 180
14aace28058f: 185
14aace283e55: 185
14aace2830e3: 185
14aace2a76f6: 191
14aace2830cf: 194
14aace280323: 194
14aace2830c1: 195
14aacec1d3f0: 201
14aace283076: 201
14aace28307d: 202
14aace280574: 202
14aace283978: 202
14aace2804f8: 202
56546d1c0580: 205
56546d1c0720: 206
14aace283961: 207
14aace2830af: 207
14aacec1cb30: 209
56546d1c05b0: 209
14aace280581: 215
14aace2805f4: 225
14aace2a76c4: 231
14aace283d1a: 236
56546d1c21e3: 253
14aace2a7682: 347
56546d1c21b8: 400
14aace2a767f: 737
56546d1c22dc: 1422
14aace2a768a: 1600
56546d1c21eb: 1607
14aace2a770e: 5132
14aace2a770a: 6161
14aace2a7706: 6276
14aace2a7703: 7495
56546d1c21d5: 10431
56546d1c22d8: 12586
56546d1c21e7: 12715
56546d1c2200: 26834
56546d1c2226: 6683692
PSCL5 TOTAL     ACCESS:    2805588  HIT:    2805588  MISS:          0  HIT %:        100  MISS %:          0   MPKI: 0
PSCL5 Test counter:          0
PSCL5 LOAD TRANSLATION ACCESS:      59274  HIT:      59274  MISS:          0  HIT %:        100  MISS %:          0   MPKI: 0
PSCL5 TRANSLATION FROM L1D PREFETCHER ACCESS:    2746314  HIT:    2746314  MISS:          0  HIT %:        100  MISS %:          0   MPKI: 0
PSCL5 PREFETCH  REQUESTED:          0  ISSUED:          0  USEFUL:          0  USELESS:          0
PSCL5 USEFUL LOAD PREFETCHES:          0 PREFETCH ISSUED TO LOWER LEVEL:          0  ACCURACY: -nan
PSCL5 TIMELY PREFETCHES:          0 LATE PREFETCHES: 0 DROPPED PREFETCHES: 0
PSCL5 COMMIT LATE PREFETCHES: 0 MISSED OPPORTUNITY: 0 LATE IN PQ: 0 UNCOVERED: 0
PSCL5 COMMIT LATE MSHR PREFETCHES: 0
PSCL5 MPKI TOTAL: 0 MSHR LATE: 0 PQ LATE: 0 COMMIT LATE: 0 MISSED OPPORTUNITY: 0 UNCOVERED: 0
PSCL5 PREFETCHES SAME FILL-ORIGIN LEVEL: 0 DIFFERENT FILL-ORIGIN LEVEL: 0

PSCL4 TOTAL     ACCESS:    2805588  HIT:    2805588  MISS:          0  HIT %:        100  MISS %:          0   MPKI: 0
PSCL4 Test counter:          0
PSCL4 LOAD TRANSLATION ACCESS:      59274  HIT:      59274  MISS:          0  HIT %:        100  MISS %:          0   MPKI: 0
PSCL4 TRANSLATION FROM L1D PREFETCHER ACCESS:    2746314  HIT:    2746314  MISS:          0  HIT %:        100  MISS %:          0   MPKI: 0
PSCL4 PREFETCH  REQUESTED:          0  ISSUED:          0  USEFUL:          0  USELESS:          0
PSCL4 USEFUL LOAD PREFETCHES:          0 PREFETCH ISSUED TO LOWER LEVEL:          0  ACCURACY: -nan
PSCL4 TIMELY PREFETCHES:          0 LATE PREFETCHES: 0 DROPPED PREFETCHES: 0
PSCL4 COMMIT LATE PREFETCHES: 0 MISSED OPPORTUNITY: 0 LATE IN PQ: 0 UNCOVERED: 0
PSCL4 COMMIT LATE MSHR PREFETCHES: 0
PSCL4 MPKI TOTAL: 0 MSHR LATE: 0 PQ LATE: 0 COMMIT LATE: 0 MISSED OPPORTUNITY: 0 UNCOVERED: 0
PSCL4 PREFETCHES SAME FILL-ORIGIN LEVEL: 0 DIFFERENT FILL-ORIGIN LEVEL: 0

PSCL3 TOTAL     ACCESS:    2805588  HIT:    2805588  MISS:          0  HIT %:        100  MISS %:          0   MPKI: 0
PSCL3 Test counter:          0
PSCL3 LOAD TRANSLATION ACCESS:      59274  HIT:      59274  MISS:          0  HIT %:        100  MISS %:          0   MPKI: 0
PSCL3 TRANSLATION FROM L1D PREFETCHER ACCESS:    2746314  HIT:    2746314  MISS:          0  HIT %:        100  MISS %:          0   MPKI: 0
PSCL3 PREFETCH  REQUESTED:          0  ISSUED:          0  USEFUL:          0  USELESS:          0
PSCL3 USEFUL LOAD PREFETCHES:          0 PREFETCH ISSUED TO LOWER LEVEL:          0  ACCURACY: -nan
PSCL3 TIMELY PREFETCHES:          0 LATE PREFETCHES: 0 DROPPED PREFETCHES: 0
PSCL3 COMMIT LATE PREFETCHES: 0 MISSED OPPORTUNITY: 0 LATE IN PQ: 0 UNCOVERED: 0
PSCL3 COMMIT LATE MSHR PREFETCHES: 0
PSCL3 MPKI TOTAL: 0 MSHR LATE: 0 PQ LATE: 0 COMMIT LATE: 0 MISSED OPPORTUNITY: 0 UNCOVERED: 0
PSCL3 PREFETCHES SAME FILL-ORIGIN LEVEL: 0 DIFFERENT FILL-ORIGIN LEVEL: 0

PSCL2 TOTAL     ACCESS:    2798740  HIT:    2786303  MISS:      12437  HIT %:    99.5556  MISS %:   0.444379   MPKI: 0.062185
PSCL2 Test counter:          0
PSCL2 LOAD TRANSLATION ACCESS:      59336  HIT:      46899  MISS:      12437  HIT %:    79.0397  MISS %:    20.9603   MPKI: 0.062185
PSCL2 TRANSLATION FROM L1D PREFETCHER ACCESS:    2739404  HIT:    2739404  MISS:          0  HIT %:        100  MISS %:          0   MPKI: 0
PSCL2 PREFETCH  REQUESTED:          0  ISSUED:          0  USEFUL:          0  USELESS:          0
PSCL2 USEFUL LOAD PREFETCHES:          0 PREFETCH ISSUED TO LOWER LEVEL:          0  ACCURACY: -nan
PSCL2 TIMELY PREFETCHES:          0 LATE PREFETCHES: 0 DROPPED PREFETCHES: 0
PSCL2 COMMIT LATE PREFETCHES: 0 MISSED OPPORTUNITY: 0 LATE IN PQ: 0 UNCOVERED: 0
PSCL2 COMMIT LATE MSHR PREFETCHES: 0
PSCL2 MPKI TOTAL: 0 MSHR LATE: 0 PQ LATE: 0 COMMIT LATE: 0 MISSED OPPORTUNITY: 0 UNCOVERED: 0
PSCL2 PREFETCHES SAME FILL-ORIGIN LEVEL: 0 DIFFERENT FILL-ORIGIN LEVEL: 0

LLC TOTAL     ACCESS:   10089892  HIT:    4760290  MISS:    5329602  HIT %:    47.1788  MISS %:    52.8212   MPKI: 26.648
LLC Test counter:          0
LLC LOAD      ACCESS:    6735195  HIT:    3616867  MISS:    3118329  HIT %:     53.701  MISS %:     46.299   MPKI: 15.5916
LLC RFO       ACCESS:     176543  HIT:      71124  MISS:     105419  HIT %:    40.2871  MISS %:    59.7129   MPKI: 0.527095
LLC PREFETCH  ACCESS:    2292169  HIT:     230728  MISS:    2061441  HIT %:    10.0659  MISS %:    89.9341   MPKI: 10.3072
LLC WRITEBACK ACCESS:     837447  HIT:     829456  MISS:       7991  HIT %:    99.0458  MISS %:    0.95421   MPKI: 0.039955
LLC LOAD TRANSLATION ACCESS:      43592  HIT:      11885  MISS:      31707  HIT %:    27.2642  MISS %:    72.7358   MPKI: 0.158535
LLC TRANSLATION FROM L1D PREFETCHER ACCESS:       4946  HIT:        230  MISS:       4716  HIT %:    4.65022  MISS %:    95.3498   MPKI: 0.02358
LLC PREFETCH  REQUESTED:          0  ISSUED:          0  USEFUL:     126277  USELESS:    1941159
LLC USEFUL LOAD PREFETCHES:     126277 PREFETCH ISSUED TO LOWER LEVEL:    2061442  ACCURACY: 6.12566
LLC TIMELY PREFETCHES:     126277 LATE PREFETCHES: 0 DROPPED PREFETCHES: 0
LLC COMMIT LATE PREFETCHES: 0 MISSED OPPORTUNITY: 0 LATE IN PQ: 0 UNCOVERED: 0
LLC COMMIT LATE MSHR PREFETCHES: 0
LLC MPKI TOTAL: 15.5916 MSHR LATE: 0 PQ LATE: 0 COMMIT LATE: 0 MISSED OPPORTUNITY: 0 UNCOVERED: 0
LLC PREFETCHES SAME FILL-ORIGIN LEVEL: 0 DIFFERENT FILL-ORIGIN LEVEL: 0
LLC AVERAGE MISS LATENCY: 158.065 cycles
LLC AVERAGE MISS LATENCY LOAD: 154.244 cycles
LLC AVERAGE MISS LATENCY PREFETCH: 161.066 cycles
LLC AVERAGE MSHR OCCUPANCY: 1.83491
LLC MSHR FULL: 0
LLC RQ	ACCESS:    6960280	FORWARD:          0	MERGED:          0	TO_CACHE:    6960278
LLC WQ	ACCESS:     837447	FORWARD:          2	MERGED:          0	TO_CACHE:     837447
LLC PQ	ACCESS:    2292170	FORWARD:          0	MERGED:          0	TO_CACHE:    2292170

LLC Dense regions hint to LLC: 0
7ffd9c71bd75: 1
56546d1c2442: 1
14aace283a27: 1
14aace280913: 1
14aace2a758f: 1
14aace283c61: 1
14aace283c4f: 1
14aace283c45: 1
14aace2a75d0: 1
14aace2a75d4: 1
56546d1c25c5: 1
14aace2a75c5: 2
14aace2a7641: 2
56546d1c24d3: 2
14aace2a7477: 2
14aace28120e: 2
14aace284457: 3
14aace283d67: 3
14aace283c88: 3
56546d1c232f: 4
14aace281252: 4
14aace28445d: 4
14aace2843a4: 4
14aace280f2b: 6
14aace28444d: 6
14aace28124c: 6
14aace2a7650: 7
14aace28113f: 7
14aace28439a: 8
14aace28121e: 8
14aace2a764b: 8
14aace280867: 8
14aace283ccc: 9
14aace280896: 10
14aace28438c: 10
14aace2a7672: 10
14aace283d3b: 10
14aace28115a: 11
14aace283cf9: 11
14aace280e6c: 12
14aace280795: 12
14aace28320e: 13
14aace283e41: 14
14aace2a76d3: 14
14aace2831f4: 14
14aace281106: 15
14aace28398d: 15
14aace283207: 16
14aace280f19: 16
14aace280f46: 17
14aace283a12: 19
14aace28431c: 19
14aace28112d: 20
14aace2805a7: 20
14aace283d43: 20
14aace283d4d: 20
14aace28062d: 21
14aace281135: 21
14aace2a7686: 23
14aace280ebb: 23
14aace280e97: 24
14aace2810ec: 25
14aace2a763e: 26
14aace28110a: 33
14aace280eb2: 33
14aace283cde: 36
14aace280c11: 41
14aace2810e6: 43
14aace281174: 43
14aace283cb6: 43
56546d1c2327: 44
14aace283cd4: 44
14aace283c6b: 52
14aace2a76cb: 57
14aace280c15: 57
14aace2a76cf: 60
14aace2a76c7: 63
14aace280ef2: 65
14aace281123: 67
14aace2830cf: 68
14aace2830c1: 68
14aace280f10: 70
56546d1c0720: 72
14aace280f73: 72
14aace280bf5: 72
14aace283978: 73
56546d1c22dc: 73
56546d1c0580: 74
14aace283e55: 75
14aace28307d: 77
14aace2810f0: 78
14aace2830af: 78
14aace283076: 78
14aace28065b: 79
14aace280581: 79
14aace28058f: 79
14aace280574: 80
14aace2830e3: 81
56546d1c05b0: 83
14aacec1d3f0: 84
14aace280323: 84
14aacec1cb30: 88
14aace2a76f6: 90
14aace283961: 90
14aace2808f4: 94
56546d1c21e3: 97
14aace2804f8: 102
14aace2808e8: 123
14aace28060d: 128
14aace2805f4: 144
14aace2a7682: 194
56546d1c21b8: 196
14aace283d1a: 224
14aace2a76c4: 226
14aace2a767f: 376
56546d1c22d8: 546
14aace2a768a: 645
56546d1c21eb: 1607
14aace2a770e: 1983
14aace2a770a: 2423
14aace2a7706: 2617
14aace2a7703: 2880
56546d1c21d5: 5284
56546d1c21e7: 12712
56546d1c2200: 26771
56546d1c2226: 3055610

RAW hits: 68422
Loads Generated: 76805712
Loads sent to L1D: 76737290
Stores Generated: 2216772
Stores sent to L1D: 2216772
Major fault: 0 Minor fault: 37080
Allocated PAGES: 37080
Total Load insts: 93562352
Total Non-spec loads: 6463871
Percentage of speculative loads: 93.0914
L1D response latency: 90.1832 cycles
Load retirement latency: 168.05 cycles

LATENCY_FILL: 89.7826 9209800

DRAM Statistics
 CHANNEL 0
 RQ ROW_BUFFER_HIT:    1780113  ROW_BUFFER_MISS:    3541450
 DBUS_CONGESTED:       5344
 WQ ROW_BUFFER_HIT:     215853  ROW_BUFFER_MISS:     503955  FULL:          0

 AVG_CONGESTED_CYCLE: 4
 All warmup complete: 2
Channel 0 Bank busy for read cycles: 0
Channel 0 Bank busy for write cycles: 0
Channel 0
Rank 0
0banks busy for read cycles: 115410787
0banks busy for write cycles: 328894
1banks busy for read cycles: 150883305
1banks busy for write cycles: 53835488
2banks busy for read cycles: 89826389
2banks busy for write cycles: 21264750
3banks busy for read cycles: 43864549
3banks busy for write cycles: 8176473
4banks busy for read cycles: 16537659
4banks busy for write cycles: 3357397
5banks busy for read cycles: 5468049
5banks busy for write cycles: 1584329
6banks busy for read cycles: 2410760
6banks busy for write cycles: 892877
7banks busy for read cycles: 1737149
7banks busy for write cycles: 626501
8banks busy for read cycles: 4794063
8banks busy for write cycles: 701845

CPU 0 Branch Prediction Accuracy: 97.7909% MPKI: 3.2859 Average ROB Occupancy at Mispredict: 167.002
Branch types
NOT_BRANCH: 170250761 85.1254%
BRANCH_DIRECT_JUMP: 9225403 4.6127%
BRANCH_INDIRECT: 0 0%
BRANCH_CONDITIONAL: 20520883 10.2604%
BRANCH_DIRECT_CALL: 1314 0.000657%
BRANCH_INDIRECT_CALL: 0 0%
BRANCH_RETURN: 1314 0.000657%
BRANCH_OTHER: 0 0%

DRAM PAGES: 1048576
Allocated PAGES: 37080
