
*** ChampSim Multicore Out-of-Order Simulator ***

Warmup Instructions: 50000000
Simulation Instructions: 200000000
Number of CPUs: 1
LLC sets: 2048
LLC ways: 16
Secure Berti: OFF
Berti: OFF
Berti Fill: OFF
On commit prefetching: OFF
L2 LLC Bypass speculative loads: OFF
Off-chip DRAM Size: 4096 MB Channels: 1 Width: 64-bit Data Rate: 6400 MT/s
CPU 0 runs /home/sumon/secure_berti/Berti_Baseline/../../traces/gap/sssp-14.trace.gz
.gz
BTB has LRU replacement policy
ITLB has LRU replacement policy
DTLB has LRU replacement policy
STLB has LRU replacement policy
L1I has LRU replacement policy
History Sets: 8
History Ways: 16
BERTI Size: 16
BERTI Stride Size: 16
L1D has LRU replacement policy
L2C has LRU replacement policy
LLC has LRU replacement policy
Heartbeat CPU 0 instructions: 10000000 cycles: 3082839 heartbeat IPC: 3.24376 cumulative IPC: 3.24376 (Simulation time: 0 hr 0 min 20 sec) 
Heartbeat CPU 0 instructions: 20000003 cycles: 6131709 heartbeat IPC: 3.2799 cumulative IPC: 3.26173 (Simulation time: 0 hr 0 min 48 sec) 
Heartbeat CPU 0 instructions: 30000001 cycles: 9209645 heartbeat IPC: 3.24893 cumulative IPC: 3.25745 (Simulation time: 0 hr 1 min 23 sec) 
Heartbeat CPU 0 instructions: 40000003 cycles: 12295884 heartbeat IPC: 3.24019 cumulative IPC: 3.25312 (Simulation time: 0 hr 1 min 45 sec) 
Heartbeat CPU 0 instructions: 50000000 cycles: 15394896 heartbeat IPC: 3.22683 cumulative IPC: 3.24783 (Simulation time: 0 hr 2 min 7 sec) 

Warmup complete CPU 0 instructions: 50000004 cycles: 15394897 (Simulation time: 0 hr 2 min 7 sec) 

Heartbeat CPU 0 instructions: 60000002 cycles: 45219750 heartbeat IPC: 0.335291 cumulative IPC: 0.335291 (Simulation time: 0 hr 2 min 42 sec) 
Heartbeat CPU 0 instructions: 70000001 cycles: 74063912 heartbeat IPC: 0.346691 cumulative IPC: 0.340895 (Simulation time: 0 hr 3 min 18 sec) 
Heartbeat CPU 0 instructions: 80000002 cycles: 102243074 heartbeat IPC: 0.354872 cumulative IPC: 0.34543 (Simulation time: 0 hr 3 min 56 sec) 
Heartbeat CPU 0 instructions: 90000003 cycles: 129663582 heartbeat IPC: 0.364691 cumulative IPC: 0.350052 (Simulation time: 0 hr 4 min 35 sec) 
Heartbeat CPU 0 instructions: 100000002 cycles: 156656014 heartbeat IPC: 0.370474 cumulative IPC: 0.353954 (Simulation time: 0 hr 5 min 15 sec) 
Heartbeat CPU 0 instructions: 110000000 cycles: 183219665 heartbeat IPC: 0.376454 cumulative IPC: 0.357516 (Simulation time: 0 hr 5 min 55 sec) 
Heartbeat CPU 0 instructions: 120000001 cycles: 209546877 heartbeat IPC: 0.379835 cumulative IPC: 0.360542 (Simulation time: 0 hr 6 min 36 sec) 
Heartbeat CPU 0 instructions: 130000003 cycles: 235799235 heartbeat IPC: 0.380918 cumulative IPC: 0.362969 (Simulation time: 0 hr 7 min 17 sec) 
Heartbeat CPU 0 instructions: 140000003 cycles: 261446400 heartbeat IPC: 0.389907 cumulative IPC: 0.365777 (Simulation time: 0 hr 7 min 58 sec) 
Heartbeat CPU 0 instructions: 150000000 cycles: 287373747 heartbeat IPC: 0.385693 cumulative IPC: 0.367676 (Simulation time: 0 hr 8 min 39 sec) 
Heartbeat CPU 0 instructions: 160000002 cycles: 312717833 heartbeat IPC: 0.394569 cumulative IPC: 0.369968 (Simulation time: 0 hr 9 min 20 sec) 
Heartbeat CPU 0 instructions: 170000002 cycles: 338084266 heartbeat IPC: 0.394222 cumulative IPC: 0.371875 (Simulation time: 0 hr 10 min 1 sec) 
Heartbeat CPU 0 instructions: 180000003 cycles: 363221840 heartbeat IPC: 0.397811 cumulative IPC: 0.373749 (Simulation time: 0 hr 10 min 41 sec) 
Heartbeat CPU 0 instructions: 190000001 cycles: 388260711 heartbeat IPC: 0.399379 cumulative IPC: 0.37547 (Simulation time: 0 hr 11 min 21 sec) 
Heartbeat CPU 0 instructions: 200000001 cycles: 413317396 heartbeat IPC: 0.399095 cumulative IPC: 0.376958 (Simulation time: 0 hr 12 min 1 sec) 
Heartbeat CPU 0 instructions: 210000002 cycles: 438070385 heartbeat IPC: 0.403992 cumulative IPC: 0.378541 (Simulation time: 0 hr 12 min 42 sec) 
Heartbeat CPU 0 instructions: 220000000 cycles: 463060987 heartbeat IPC: 0.40015 cumulative IPC: 0.379747 (Simulation time: 0 hr 13 min 22 sec) 
Heartbeat CPU 0 instructions: 230000001 cycles: 487744920 heartbeat IPC: 0.405122 cumulative IPC: 0.381073 (Simulation time: 0 hr 14 min 3 sec) 
Heartbeat CPU 0 instructions: 240000003 cycles: 512729858 heartbeat IPC: 0.400241 cumulative IPC: 0.382036 (Simulation time: 0 hr 14 min 37 sec) 
Heartbeat CPU 0 instructions: 250000001 cycles: 537669726 heartbeat IPC: 0.400964 cumulative IPC: 0.38294 (Simulation time: 0 hr 15 min 10 sec) 
Finished CPU 0 instructions: 200000001 cycles: 522274830 cumulative IPC: 0.38294 (Simulation time: 0 hr 15 min 10 sec) 

ChampSim completed all CPUs

Region of Interest Statistics

CPU 0 cumulative IPC: 0.38294 instructions: 200000001 cycles: 522274830
ITLB TOTAL     ACCESS:   24378792  HIT:   24378792  MISS:          0  HIT %:        100  MISS %:          0   MPKI: 0
ITLB Test counter:          0
ITLB LOAD TRANSLATION ACCESS:   24378792  HIT:   24378792  MISS:          0  HIT %:        100  MISS %:          0   MPKI: 0
ITLB PREFETCH  REQUESTED:          0  ISSUED:          0  USEFUL:          0  USELESS:          0
ITLB USEFUL LOAD PREFETCHES:          0 PREFETCH ISSUED TO LOWER LEVEL:          0  ACCURACY: -nan
ITLB TIMELY PREFETCHES:          0 LATE PREFETCHES: 0 DROPPED PREFETCHES: 0
ITLB COMMIT LATE PREFETCHES: 0 MISSED OPPORTUNITY: 0 LATE IN PQ: 0 UNCOVERED: 0
ITLB COMMIT LATE MSHR PREFETCHES: 0
ITLB MPKI TOTAL: 0 MSHR LATE: 0 PQ LATE: 0 COMMIT LATE: 0 MISSED OPPORTUNITY: 0 UNCOVERED: 0
ITLB PREFETCHES SAME FILL-ORIGIN LEVEL: 0 DIFFERENT FILL-ORIGIN LEVEL: 0
ITLB AVERAGE MISS LATENCY: -nan cycles
ITLB AVERAGE MISS LATENCY LOAD: -nan cycles
ITLB AVERAGE MISS LATENCY PREFETCH: -nan cycles
ITLB AVERAGE MSHR OCCUPANCY: 0
ITLB MSHR FULL: 0
ITLB RQ	ACCESS:   25047155	FORWARD:          0	MERGED:     668363	TO_CACHE:   24378792

DTLB TOTAL     ACCESS:   43409702  HIT:   38861368  MISS:    4548334  HIT %:    89.5223  MISS %:    10.4777   MPKI: 22.7417
DTLB Test counter:          0
DTLB LOAD TRANSLATION ACCESS:   43409702  HIT:   38861368  MISS:    4548334  HIT %:    89.5223  MISS %:    10.4777   MPKI: 22.7417
DTLB PREFETCH  REQUESTED:          0  ISSUED:          0  USEFUL:          0  USELESS:          0
DTLB USEFUL LOAD PREFETCHES:          0 PREFETCH ISSUED TO LOWER LEVEL:          0  ACCURACY: -nan
DTLB TIMELY PREFETCHES:          0 LATE PREFETCHES: 0 DROPPED PREFETCHES: 0
DTLB COMMIT LATE PREFETCHES: 0 MISSED OPPORTUNITY: 0 LATE IN PQ: 0 UNCOVERED: 0
DTLB COMMIT LATE MSHR PREFETCHES: 0
DTLB MPKI TOTAL: 0 MSHR LATE: 0 PQ LATE: 0 COMMIT LATE: 0 MISSED OPPORTUNITY: 0 UNCOVERED: 0
DTLB PREFETCHES SAME FILL-ORIGIN LEVEL: 0 DIFFERENT FILL-ORIGIN LEVEL: 0
DTLB AVERAGE MISS LATENCY: 11.573 cycles
DTLB AVERAGE MISS LATENCY LOAD: -nan cycles
DTLB AVERAGE MISS LATENCY PREFETCH: -nan cycles
DTLB AVERAGE MSHR OCCUPANCY: 0.170495
DTLB MSHR FULL: 2.75485e-07
DTLB RQ	ACCESS:   45726216	FORWARD:          0	MERGED:    2166724	TO_CACHE:   43559492

STLB TOTAL     ACCESS:   10103661  HIT:   10039976  MISS:      63685  HIT %:    99.3697  MISS %:   0.630316   MPKI: 0.318425
STLB Test counter:          0
STLB LOAD TRANSLATION ACCESS:    4548334  HIT:    4489322  MISS:      59012  HIT %:    98.7026  MISS %:    1.29744   MPKI: 0.29506
STLB TRANSLATION FROM L1D PREFETCHER ACCESS:    5555327  HIT:    5550654  MISS:       4673  HIT %:    99.9159  MISS %:  0.0841175   MPKI: 0.023365
STLB PREFETCH  REQUESTED:          0  ISSUED:          0  USEFUL:       4484  USELESS:        188
STLB USEFUL LOAD PREFETCHES:       4484 PREFETCH ISSUED TO LOWER LEVEL:          0  ACCURACY: inf
STLB TIMELY PREFETCHES:       4484 LATE PREFETCHES: 4450 DROPPED PREFETCHES: 2932155
STLB COMMIT LATE PREFETCHES: 0 MISSED OPPORTUNITY: 0 LATE IN PQ: 0 UNCOVERED: 0
STLB COMMIT LATE MSHR PREFETCHES: 0
STLB MPKI TOTAL: 0 MSHR LATE: 0.02225 PQ LATE: 0 COMMIT LATE: 0 MISSED OPPORTUNITY: 0 UNCOVERED: 0
STLB PREFETCHES SAME FILL-ORIGIN LEVEL: 0 DIFFERENT FILL-ORIGIN LEVEL: 0
STLB AVERAGE MISS LATENCY: 175.628 cycles
STLB AVERAGE MISS LATENCY LOAD: -nan cycles
STLB AVERAGE MISS LATENCY PREFETCH: -nan cycles
STLB AVERAGE MSHR OCCUPANCY: 0.26376
STLB MSHR FULL: 0
STLB RQ	ACCESS:   39457207	FORWARD:          0	MERGED:   26107521	TO_CACHE:   13349686

STLB Hit, L1D data hit: 0
STLB Hit, L2C data hit: 0
STLB Hit, LLC data hit: 0
STLB Hit, LLC data miss: 0
STLB STLB hints to L2: 0
L1D TOTAL     ACCESS:   70842060  HIT:   59887810  MISS:   10954250  HIT %:    84.5371  MISS %:    15.4629   MPKI: 54.7712
L1D Test counter:          0
L1D LOAD      ACCESS:   43297654  HIT:   34087801  MISS:    9408517  HIT %:     78.729  MISS %:     21.271   MPKI: 46.0493
L1D RFO       ACCESS:    2048739  HIT:    1572858  MISS:     475881  HIT %:     76.772  MISS %:     23.228   MPKI: 2.3794
L1D PREFETCH  ACCESS:   25495667  HIT:   24227151  MISS:    1268516  HIT %:    95.0246  MISS %:    4.97542   MPKI: 6.34258
L1D PREFETCH  REQUESTED:   86784544  ISSUED:   86586315  USEFUL:    1137129  USELESS:     131379
L1D USEFUL LOAD PREFETCHES:    1137129 PREFETCH ISSUED TO LOWER LEVEL:    5193040  ACCURACY: 21.8972
L1D TIMELY PREFETCHES:    1137129 LATE PREFETCHES: 19786 DROPPED PREFETCHES: 4597659
L1D COMMIT LATE PREFETCHES: 0 MISSED OPPORTUNITY: 0 LATE IN PQ: 53305 UNCOVERED: 0
L1D COMMIT LATE MSHR PREFETCHES: 0
L1D MPKI TOTAL: 47.0426 MSHR LATE: 0.09893 PQ LATE: 0.266525 COMMIT LATE: 0 MISSED OPPORTUNITY: 0 UNCOVERED: 0
L1D PREFETCHES SAME FILL-ORIGIN LEVEL: 1288302 DIFFERENT FILL-ORIGIN LEVEL: 3904738
L1D AVERAGE MISS LATENCY: 97.3726 cycles
L1D AVERAGE MISS LATENCY LOAD: 90.3689 cycles
L1D AVERAGE MISS LATENCY PREFETCH: 157.078 cycles
L1D AVERAGE MSHR OCCUPANCY: 2.05611
L1D MSHR FULL: 0.0253287
L1D RQ	ACCESS:   76713005	FORWARD:          0	MERGED:   33211891	TO_CACHE:   43496321
L1D WQ	ACCESS:    2230588	FORWARD:       4793	MERGED:        693	TO_CACHE:    2229895
L1D PQ	ACCESS:   51677443	FORWARD:          0	MERGED:   16768571	TO_CACHE:   34908872

L1D UNIQUE REGIONS ACCESSED: 0
L1D REGIONS CONFLICTS: 0
L1D Cross Page Prefetch Requests: 10695768
L1D Same Page Prefetch Requests: 53693826
L1D ROI Sum of L1D PQ occupancy: 660666009
L1D PREFETCHES PUSHED FROM L2C: 0
560385bcc386: 1
1493ffba3a39: 1
560385bcc4af: 1
1493ffba3a58: 1
1493ffba3a82: 1
1493ffbc75cc: 1
1493ffb9c93c: 1
1493ffba3a4b: 1
1493ffba0913: 1
1493ffba3a7c: 1
1493ffb9c9fc: 1
560385bcc2f6: 1
7fff0f33fd75: 1
1493ffb9c9de: 1
1493ffb9c959: 1
560385bcc5c5: 1
560385bca710: 1
560385bcc485: 1
560385bcc1c5: 1
560385bcc4aa: 1
1493ffbc7477: 1
1493ffb9c965: 1
1493ffb9ca25: 1
1493ffb9c97e: 1
1493ffb9ca06: 1
1493ffb9c99b: 1
1493ffbc76c3: 2
1493ffba0f2b: 2
1493ffbc75d0: 2
1493ffbc75d4: 2
1493ffba1252: 3
1493ffbc75c5: 4
1493ffba445d: 4
1493ffba4457: 5
1493ffba3d3b: 6
1493ffba124c: 6
1493ffba444d: 6
560385bcc568: 7
1493ffbc7650: 7
1493ffba121e: 7
1493ffbc764b: 8
1493ffbc7646: 8
1493ffba1135: 9
1493ffba3ccc: 9
1493ffba439a: 9
1493ffba43a4: 9
1493ffba3d67: 10
1493ffba3cf9: 12
1493ffba438c: 12
1493ffba0ebb: 13
1493ffba1106: 14
1493ffba0f46: 16
1493ffba320e: 16
1493ffba3e41: 16
1493ffba0795: 16
1493ffba3207: 16
1493ffba31f4: 16
1493ffba0f19: 16
1493ffba431c: 18
1493ffba112d: 18
1493ffba0e6c: 18
1493ffba115a: 18
1493ffba3a12: 21
1493ffba062d: 21
560385bcc4d3: 23
1493ffba3d4d: 24
1493ffba113f: 26
1493ffbc7641: 29
1493ffba0896: 30
1493ffbc763e: 30
1493ffba0867: 30
1493ffbc7672: 31
1493ffba0eb2: 31
1493ffba0c11: 32
1493ffba3d43: 32
1493ffba110a: 35
1493ffba0e97: 44
1493ffba1174: 46
1493ffbc774a: 47
1493ffba10ec: 47
1493ffba3d7f: 47
560385bcc539: 48
1493ffba399f: 48
560385bcc327: 48
560385bcc58e: 48
1493ffba3971: 48
1493ffba39a6: 48
1493ffba10e6: 49
560385bcc32f: 49
1493ffba3cde: 50
1493ffba3a09: 51
1493ffba3cb6: 51
1493ffbc76c7: 52
1493ffba3c45: 54
1493ffbc76cf: 54
1493ffba3c4f: 54
1493ffba3c95: 54
1493ffba3c61: 54
1493ffba3cd4: 55
1493ffba3a27: 55
1493ffba05a7: 56
1493ffbc76cb: 58
1493ffba3c88: 59
1493ffba0ef2: 68
1493ffba398d: 80
1493ffba1123: 84
1493ffba0c15: 84
1493ffba0f10: 86
1493ffba3c6b: 99
1493ffba0bf5: 120
1493ffba08f4: 143
1493ffba10f0: 158
1493ffbc76d3: 174
1493ffba060d: 176
1493ffba08e8: 191
1493ffba0f73: 202
1493ffba065b: 211
1493ffbc76f6: 220
1493ffbc76c4: 225
1493ffba058f: 230
1493ffba0574: 233
1493ffba04f8: 233
1493ffba0323: 234
1493ffba30e3: 234
1493ffba3d1a: 235
1493ffba3e55: 239
1493ffba05f4: 241
1493ffba30cf: 248
1493ffba30c1: 248
1493ffba30af: 249
1493ffba3076: 252
14940053cb30: 253
560385bca720: 254
1493ffba307d: 255
560385bca580: 255
560385bca5b0: 255
1493ffba3961: 256
1493ffba3978: 256
14940053d3f0: 256
1493ffba0581: 267
1493ffbc768a: 621
1493ffbc7686: 882
1493ffbc767f: 903
560385bcc1eb: 1553
1493ffbc7682: 1703
560385bcc1e3: 3226
560385bcc1b8: 3573
1493ffbc7706: 11094
1493ffbc7703: 11212
560385bcc1d5: 12013
560385bcc1e7: 12243
1493ffbc770e: 12420
1493ffbc770a: 12674
560385bcc2dc: 25005
560385bcc200: 36851
560385bcc2d8: 204547
560385bcc226: 8849674
L1I TOTAL     ACCESS:   25047153  HIT:   25047153  MISS:          0  HIT %:        100  MISS %:          0   MPKI: 0
L1I Test counter:          0
L1I LOAD      ACCESS:   25047153  HIT:   25047153  MISS:          0  HIT %:        100  MISS %:          0   MPKI: 0
L1I PREFETCH  REQUESTED:          0  ISSUED:          0  USEFUL:          0  USELESS:          0
L1I USEFUL LOAD PREFETCHES:          0 PREFETCH ISSUED TO LOWER LEVEL:          0  ACCURACY: -nan
L1I TIMELY PREFETCHES:          0 LATE PREFETCHES: 0 DROPPED PREFETCHES: 0
L1I COMMIT LATE PREFETCHES: 0 MISSED OPPORTUNITY: 0 LATE IN PQ: 0 UNCOVERED: 0
L1I COMMIT LATE MSHR PREFETCHES: 0
L1I MPKI TOTAL: 0 MSHR LATE: 0 PQ LATE: 0 COMMIT LATE: 0 MISSED OPPORTUNITY: 0 UNCOVERED: 0
L1I PREFETCHES SAME FILL-ORIGIN LEVEL: 0 DIFFERENT FILL-ORIGIN LEVEL: 0
L1I AVERAGE MISS LATENCY: -nan cycles
L1I AVERAGE MISS LATENCY LOAD: -nan cycles
L1I AVERAGE MISS LATENCY PREFETCH: -nan cycles
L1I AVERAGE MSHR OCCUPANCY: 0
L1I MSHR FULL: 0
L1I RQ	ACCESS:   38877051	FORWARD:          0	MERGED:   13829896	TO_CACHE:   25047155

BTB TOTAL     ACCESS:   29059518  HIT:   29059371  MISS:        147  HIT %:    99.9995  MISS %: 0.000505858   MPKI: 0.000735
BTB Test counter:          0
BTB BRANCH_DIRECT_JUMP	ACCESS:    9220890  HIT:    9220849  MISS:         41
BTB BRANCH_INDIRECT	ACCESS:          0  HIT:          0  MISS:          0
BTB BRANCH_CONDITIONAL	ACCESS:   19836028  HIT:   19835946  MISS:         82
BTB BRANCH_DIRECT_CALL	ACCESS:       1300  HIT:       1290  MISS:         10
BTB BRANCH_INDIRECT_CALL	ACCESS:          0  HIT:          0  MISS:          0
BTB BRANCH_RETURN	ACCESS:       1300  HIT:       1286  MISS:         14
BTB BRANCH_OTHER ACCESS:          0  HIT:          0  MISS:          0

L2C TOTAL     ACCESS:   18618006  HIT:    9191688  MISS:    9426318  HIT %:    49.3699  MISS %:    50.6301   MPKI: 47.1316
L2C Test counter:          0
L2C LOAD      ACCESS:    9190065  HIT:    2375267  MISS:    6814798  HIT %:     25.846  MISS %:     74.154   MPKI: 34.074
L2C DATA LOAD MPKI: 34.074
L2C INSTRUCTION LOAD MPKI: 0
L2C RFO       ACCESS:     475873  HIT:     297475  MISS:     178398  HIT %:    62.5114  MISS %:    37.4886   MPKI: 0.89199
L2C PREFETCH  ACCESS:    4596557  HIT:    2215942  MISS:    2380615  HIT %:    48.2087  MISS %:    51.7913   MPKI: 11.9031
L2C DATA PREFETCH MPKI: 11.9031
L2C INSTRUCTION PREFETCH MPKI: 0
L2C WRITEBACK ACCESS:    1336745  HIT:    1332756  MISS:       3989  HIT %:    99.7016  MISS %:   0.298411   MPKI: 0.019945
L2C LOAD TRANSLATION ACCESS:      70758  HIT:      27437  MISS:      43321  HIT %:    38.7758  MISS %:    61.2242   MPKI: 0.216605
L2C TRANSLATION FROM L1D PREFETCHER ACCESS:    2948008  HIT:    2942811  MISS:       5197  HIT %:    99.8237  MISS %:   0.176289   MPKI: 0.025985
L2C PREFETCH  REQUESTED:          0  ISSUED:          0  USEFUL:     220570  USELESS:    2165727
L2C USEFUL LOAD PREFETCHES:     220570 PREFETCH ISSUED TO LOWER LEVEL:    2433430  ACCURACY: 9.06416
L2C TIMELY PREFETCHES:     220570 LATE PREFETCHES: 52814 DROPPED PREFETCHES: 0
L2C COMMIT LATE PREFETCHES: 0 MISSED OPPORTUNITY: 0 LATE IN PQ: 0 UNCOVERED: 0
L2C COMMIT LATE MSHR PREFETCHES: 0
L2C MPKI TOTAL: 34.074 MSHR LATE: 0.26407 PQ LATE: 0 COMMIT LATE: 0 MISSED OPPORTUNITY: 0 UNCOVERED: 0
L2C PREFETCHES SAME FILL-ORIGIN LEVEL: 1481787 DIFFERENT FILL-ORIGIN LEVEL: 0
L2C AVERAGE MISS LATENCY: 120.747 cycles
L2C AVERAGE MISS LATENCY LOAD: 101.635 cycles
L2C AVERAGE MISS LATENCY PREFETCH: 172.116 cycles
L2C AVERAGE MSHR OCCUPANCY: 2.43419
L2C MSHR FULL: 8.26125e-05
L2C RQ	ACCESS:   12684715	FORWARD:          0	MERGED:          0	TO_CACHE:   12684705
L2C WQ	ACCESS:    1336745	FORWARD:         12	MERGED:          0	TO_CACHE:    1336745
L2C PQ	ACCESS:    5193023	FORWARD:          0	MERGED:       1971	TO_CACHE:    5191050

L2C Instructions Evicting Data 0
L2C Translations Evicting Data 48301
L2C Data Evicting Data 9325555
L2C Instructions Evicting Instructions 0
L2C Translations Evicting Instructions 0
L2C Data Evicting Instructions 0
L2C Instructions Evicting Translations 0
L2C Translations Evicting Translations 217
L2C Data Evicting Translations 48256
L2C Dense regions hint from L2: 0
560385bcc5c5: 1
1493ffba3a82: 1
1493ffba3a39: 1
560385bcc2f6: 1
1493ffb9c959: 1
1493ffb9c9de: 1
7fff0f33fd75: 1
1493ffb9c9fc: 1
1493ffba3a7c: 1
1493ffb9c99b: 1
1493ffbc75cc: 1
1493ffba3a58: 1
560385bca710: 1
560385bcc1c5: 1
1493ffba3a4b: 1
1493ffbc7477: 1
1493ffb9c965: 1
1493ffb9ca25: 1
1493ffb9c97e: 1
1493ffb9ca06: 1
1493ffb9c93c: 1
560385bcc539: 2
1493ffbc75d0: 2
1493ffba0f2b: 2
1493ffbc75d4: 2
1493ffba1252: 3
560385bcc4d3: 3
1493ffba444d: 4
1493ffbc75c5: 4
1493ffba3d3b: 4
1493ffba3c4f: 4
1493ffba445d: 4
1493ffba3c95: 4
1493ffba3c61: 4
1493ffba3c45: 4
1493ffba3d7f: 5
1493ffba4457: 5
1493ffba3a27: 5
1493ffba124c: 6
1493ffba3c88: 6
1493ffba1135: 7
1493ffbc7650: 7
1493ffba121e: 7
560385bcc32f: 7
1493ffba439a: 8
1493ffba3d67: 8
1493ffbc764b: 8
1493ffbc7646: 8
1493ffba3ccc: 9
1493ffba43a4: 9
1493ffba0ebb: 11
1493ffba3cf9: 12
1493ffba438c: 12
1493ffba1106: 14
1493ffbc7641: 15
1493ffba0f46: 15
1493ffba112d: 16
1493ffba3e41: 16
1493ffba31f4: 16
1493ffba0f19: 16
1493ffba3207: 16
1493ffba320e: 16
1493ffba0795: 16
1493ffba115a: 17
1493ffba431c: 18
1493ffba0e6c: 18
1493ffba3a12: 20
1493ffba062d: 21
1493ffba3d4d: 24
1493ffba113f: 25
1493ffba0867: 26
1493ffba0896: 26
1493ffba0eb2: 26
1493ffbc7672: 26
1493ffba0c11: 28
1493ffba3d43: 30
1493ffbc763e: 30
1493ffba110a: 33
1493ffba398d: 36
1493ffba10ec: 40
1493ffba0e97: 40
560385bcc58e: 42
1493ffba3cb6: 42
560385bcc327: 45
1493ffba3cde: 45
1493ffba1174: 46
1493ffba10e6: 47
1493ffba05a7: 47
1493ffba3cd4: 52
1493ffbc76c7: 52
1493ffbc76cf: 54
1493ffbc76cb: 58
1493ffba3c6b: 58
1493ffba0ef2: 66
1493ffbc76d3: 67
1493ffba0c15: 72
1493ffba0f10: 80
1493ffba1123: 84
1493ffba0bf5: 113
1493ffba08f4: 130
1493ffba10f0: 143
1493ffba060d: 164
1493ffba08e8: 172
1493ffbc76f6: 178
1493ffba0f73: 179
1493ffba065b: 182
1493ffba058f: 186
1493ffba0574: 191
1493ffba3961: 195
1493ffba04f8: 196
1493ffba30c1: 198
560385bca720: 199
1493ffba30cf: 202
1493ffba30e3: 202
1493ffba3e55: 203
14940053d3f0: 204
1493ffba0323: 204
560385bca5b0: 205
1493ffba307d: 206
1493ffba30af: 207
1493ffba3076: 208
1493ffba3978: 211
560385bca580: 213
14940053cb30: 213
1493ffba05f4: 218
1493ffba0581: 221
1493ffbc76c4: 224
1493ffba3d1a: 232
560385bcc1e3: 272
560385bcc1b8: 329
1493ffbc768a: 401
1493ffbc7686: 502
1493ffbc767f: 554
1493ffbc7682: 862
560385bcc2dc: 1419
560385bcc1eb: 1553
1493ffbc7706: 5453
1493ffbc770e: 6265
1493ffbc770a: 6278
1493ffbc7703: 6464
560385bcc1d5: 9751
560385bcc2d8: 12230
560385bcc1e7: 12243
560385bcc200: 26390
560385bcc226: 6716229
PSCL5 TOTAL     ACCESS:    2999987  HIT:    2999987  MISS:          0  HIT %:        100  MISS %:          0   MPKI: 0
PSCL5 Test counter:          0
PSCL5 LOAD TRANSLATION ACCESS:      58709  HIT:      58709  MISS:          0  HIT %:        100  MISS %:          0   MPKI: 0
PSCL5 TRANSLATION FROM L1D PREFETCHER ACCESS:    2941278  HIT:    2941278  MISS:          0  HIT %:        100  MISS %:          0   MPKI: 0
PSCL5 PREFETCH  REQUESTED:          0  ISSUED:          0  USEFUL:          0  USELESS:          0
PSCL5 USEFUL LOAD PREFETCHES:          0 PREFETCH ISSUED TO LOWER LEVEL:          0  ACCURACY: -nan
PSCL5 TIMELY PREFETCHES:          0 LATE PREFETCHES: 0 DROPPED PREFETCHES: 0
PSCL5 COMMIT LATE PREFETCHES: 0 MISSED OPPORTUNITY: 0 LATE IN PQ: 0 UNCOVERED: 0
PSCL5 COMMIT LATE MSHR PREFETCHES: 0
PSCL5 MPKI TOTAL: 0 MSHR LATE: 0 PQ LATE: 0 COMMIT LATE: 0 MISSED OPPORTUNITY: 0 UNCOVERED: 0
PSCL5 PREFETCHES SAME FILL-ORIGIN LEVEL: 0 DIFFERENT FILL-ORIGIN LEVEL: 0

PSCL4 TOTAL     ACCESS:    2999987  HIT:    2999987  MISS:          0  HIT %:        100  MISS %:          0   MPKI: 0
PSCL4 Test counter:          0
PSCL4 LOAD TRANSLATION ACCESS:      58709  HIT:      58709  MISS:          0  HIT %:        100  MISS %:          0   MPKI: 0
PSCL4 TRANSLATION FROM L1D PREFETCHER ACCESS:    2941278  HIT:    2941278  MISS:          0  HIT %:        100  MISS %:          0   MPKI: 0
PSCL4 PREFETCH  REQUESTED:          0  ISSUED:          0  USEFUL:          0  USELESS:          0
PSCL4 USEFUL LOAD PREFETCHES:          0 PREFETCH ISSUED TO LOWER LEVEL:          0  ACCURACY: -nan
PSCL4 TIMELY PREFETCHES:          0 LATE PREFETCHES: 0 DROPPED PREFETCHES: 0
PSCL4 COMMIT LATE PREFETCHES: 0 MISSED OPPORTUNITY: 0 LATE IN PQ: 0 UNCOVERED: 0
PSCL4 COMMIT LATE MSHR PREFETCHES: 0
PSCL4 MPKI TOTAL: 0 MSHR LATE: 0 PQ LATE: 0 COMMIT LATE: 0 MISSED OPPORTUNITY: 0 UNCOVERED: 0
PSCL4 PREFETCHES SAME FILL-ORIGIN LEVEL: 0 DIFFERENT FILL-ORIGIN LEVEL: 0

PSCL3 TOTAL     ACCESS:    2999987  HIT:    2999987  MISS:          0  HIT %:        100  MISS %:          0   MPKI: 0
PSCL3 Test counter:          0
PSCL3 LOAD TRANSLATION ACCESS:      58709  HIT:      58709  MISS:          0  HIT %:        100  MISS %:          0   MPKI: 0
PSCL3 TRANSLATION FROM L1D PREFETCHER ACCESS:    2941278  HIT:    2941278  MISS:          0  HIT %:        100  MISS %:          0   MPKI: 0
PSCL3 PREFETCH  REQUESTED:          0  ISSUED:          0  USEFUL:          0  USELESS:          0
PSCL3 USEFUL LOAD PREFETCHES:          0 PREFETCH ISSUED TO LOWER LEVEL:          0  ACCURACY: -nan
PSCL3 TIMELY PREFETCHES:          0 LATE PREFETCHES: 0 DROPPED PREFETCHES: 0
PSCL3 COMMIT LATE PREFETCHES: 0 MISSED OPPORTUNITY: 0 LATE IN PQ: 0 UNCOVERED: 0
PSCL3 COMMIT LATE MSHR PREFETCHES: 0
PSCL3 MPKI TOTAL: 0 MSHR LATE: 0 PQ LATE: 0 COMMIT LATE: 0 MISSED OPPORTUNITY: 0 UNCOVERED: 0
PSCL3 PREFETCHES SAME FILL-ORIGIN LEVEL: 0 DIFFERENT FILL-ORIGIN LEVEL: 0

PSCL2 TOTAL     ACCESS:    2993367  HIT:    2981206  MISS:      12161  HIT %:    99.5937  MISS %:   0.406265   MPKI: 0.060805
PSCL2 Test counter:          0
PSCL2 LOAD TRANSLATION ACCESS:      58819  HIT:      46658  MISS:      12161  HIT %:    79.3247  MISS %:    20.6753   MPKI: 0.060805
PSCL2 TRANSLATION FROM L1D PREFETCHER ACCESS:    2934548  HIT:    2934548  MISS:          0  HIT %:        100  MISS %:          0   MPKI: 0
PSCL2 PREFETCH  REQUESTED:          0  ISSUED:          0  USEFUL:          0  USELESS:          0
PSCL2 USEFUL LOAD PREFETCHES:          0 PREFETCH ISSUED TO LOWER LEVEL:          0  ACCURACY: -nan
PSCL2 TIMELY PREFETCHES:          0 LATE PREFETCHES: 0 DROPPED PREFETCHES: 0
PSCL2 COMMIT LATE PREFETCHES: 0 MISSED OPPORTUNITY: 0 LATE IN PQ: 0 UNCOVERED: 0
PSCL2 COMMIT LATE MSHR PREFETCHES: 0
PSCL2 MPKI TOTAL: 0 MSHR LATE: 0 PQ LATE: 0 COMMIT LATE: 0 MISSED OPPORTUNITY: 0 UNCOVERED: 0
PSCL2 PREFETCHES SAME FILL-ORIGIN LEVEL: 0 DIFFERENT FILL-ORIGIN LEVEL: 0

LLC TOTAL     ACCESS:   10267645  HIT:    4799095  MISS:    5468550  HIT %:      46.74  MISS %:      53.26   MPKI: 27.3427
LLC Test counter:          0
LLC LOAD      ACCESS:    6761984  HIT:    3611197  MISS:    3150787  HIT %:    53.4044  MISS %:    46.5956   MPKI: 15.7539
LLC RFO       ACCESS:     178398  HIT:      75468  MISS:     102930  HIT %:    42.3032  MISS %:    57.6968   MPKI: 0.51465
LLC PREFETCH  ACCESS:    2433429  HIT:     263149  MISS:    2170280  HIT %:    10.8139  MISS %:    89.1861   MPKI: 10.8514
LLC WRITEBACK ACCESS:     845316  HIT:     836721  MISS:       8595  HIT %:    98.9832  MISS %:    1.01678   MPKI: 0.042975
LLC LOAD TRANSLATION ACCESS:      43321  HIT:      12226  MISS:      31095  HIT %:    28.2219  MISS %:    71.7781   MPKI: 0.155475
LLC TRANSLATION FROM L1D PREFETCHER ACCESS:       5197  HIT:        334  MISS:       4863  HIT %:    6.42678  MISS %:    93.5732   MPKI: 0.024315
LLC PREFETCH  REQUESTED:          0  ISSUED:          0  USEFUL:     144816  USELESS:    2030034
LLC USEFUL LOAD PREFETCHES:     144816 PREFETCH ISSUED TO LOWER LEVEL:    2170280  ACCURACY: 6.67269
LLC TIMELY PREFETCHES:     144816 LATE PREFETCHES: 0 DROPPED PREFETCHES: 0
LLC COMMIT LATE PREFETCHES: 0 MISSED OPPORTUNITY: 0 LATE IN PQ: 0 UNCOVERED: 0
LLC COMMIT LATE MSHR PREFETCHES: 0
LLC MPKI TOTAL: 15.7539 MSHR LATE: 0 PQ LATE: 0 COMMIT LATE: 0 MISSED OPPORTUNITY: 0 UNCOVERED: 0
LLC PREFETCHES SAME FILL-ORIGIN LEVEL: 0 DIFFERENT FILL-ORIGIN LEVEL: 0
LLC AVERAGE MISS LATENCY: 157.182 cycles
LLC AVERAGE MISS LATENCY LOAD: 153.155 cycles
LLC AVERAGE MISS LATENCY PREFETCH: 160.379 cycles
LLC AVERAGE MSHR OCCUPANCY: 1.84901
LLC MSHR FULL: 0
LLC RQ	ACCESS:    6988900	FORWARD:          0	MERGED:          0	TO_CACHE:    6988900
LLC WQ	ACCESS:     845316	FORWARD:          0	MERGED:          0	TO_CACHE:     845316
LLC PQ	ACCESS:    2433430	FORWARD:          0	MERGED:          0	TO_CACHE:    2433430

LLC Dense regions hint to LLC: 0
560385bca710: 1
560385bcc4d3: 1
1493ffbc75cc: 1
1493ffba3c61: 1
7fff0f33fd75: 1
1493ffba3c45: 1
1493ffba3c95: 1
1493ffb9c99b: 1
1493ffb9c9de: 1
1493ffba3a39: 1
1493ffb9c9fc: 1
560385bcc5c5: 1
560385bcc1c5: 1
1493ffb9ca25: 1
1493ffb9c97e: 1
1493ffb9ca06: 1
1493ffba3a27: 1
560385bcc32f: 1
1493ffbc7477: 1
1493ffba3c4f: 1
1493ffba0f2b: 2
1493ffbc75d0: 2
1493ffbc75d4: 2
1493ffba3d7f: 2
1493ffba1252: 3
1493ffba3c88: 3
1493ffbc75c5: 3
1493ffba444d: 4
1493ffba445d: 4
1493ffba4457: 4
1493ffba3d3b: 4
1493ffbc7646: 4
1493ffbc7650: 5
1493ffbc7641: 5
1493ffba3d67: 6
1493ffba0896: 6
1493ffba124c: 6
1493ffba1135: 6
1493ffba121e: 7
1493ffbc764b: 7
1493ffba43a4: 7
1493ffba0867: 7
1493ffba1106: 8
1493ffba439a: 8
1493ffba3ccc: 8
1493ffba0ebb: 9
1493ffba112d: 9
1493ffba438c: 9
1493ffba3cf9: 11
1493ffba0f19: 12
1493ffbc7672: 13
1493ffba0f46: 13
1493ffba320e: 13
1493ffba0e6c: 14
1493ffba115a: 14
1493ffba3207: 15
1493ffbc76d3: 15
1493ffba0795: 15
1493ffba31f4: 15
1493ffba398d: 16
1493ffba3e41: 16
1493ffba062d: 16
1493ffba113f: 16
1493ffba05a7: 18
1493ffba431c: 18
1493ffba3d4d: 18
1493ffba3a12: 19
1493ffba110a: 21
1493ffba0eb2: 22
1493ffba0c11: 22
1493ffba3d43: 23
1493ffba10ec: 28
1493ffbc763e: 29
1493ffba0e97: 30
560385bcc58e: 35
1493ffba3cb6: 38
560385bcc327: 39
1493ffba3cde: 39
1493ffba1174: 39
1493ffba10e6: 41
1493ffba3cd4: 42
1493ffba0c15: 51
1493ffba30af: 52
1493ffbc76c7: 52
1493ffbc76cf: 54
1493ffba3c6b: 55
1493ffba0ef2: 55
1493ffbc76cb: 58
560385bca720: 58
1493ffba3961: 60
1493ffba307d: 67
1493ffba0f10: 68
1493ffba3076: 68
1493ffba065b: 69
14940053d3f0: 71
1493ffbc76f6: 71
1493ffba3978: 71
1493ffba1123: 72
1493ffba058f: 73
560385bcc1e3: 73
14940053cb30: 74
560385bca580: 75
1493ffba30c1: 76
560385bca5b0: 80
1493ffba0f73: 81
1493ffba0bf5: 82
1493ffba0581: 82
560385bcc2dc: 83
1493ffba30cf: 86
1493ffba0323: 87
1493ffba08f4: 88
1493ffba30e3: 89
1493ffba3e55: 91
1493ffba10f0: 92
1493ffba0574: 94
1493ffba04f8: 100
1493ffba08e8: 118
560385bcc1b8: 128
1493ffba060d: 133
1493ffba05f4: 158
1493ffbc76c4: 221
1493ffba3d1a: 227
1493ffbc768a: 254
1493ffbc7686: 276
1493ffbc767f: 284
1493ffbc7682: 409
560385bcc2d8: 705
560385bcc1eb: 1553
1493ffbc770a: 2348
1493ffbc7706: 2374
1493ffbc770e: 2503
1493ffbc7703: 2546
560385bcc1d5: 4969
560385bcc1e7: 12237
560385bcc200: 26315
560385bcc226: 3089566

RAW hits: 66986
Loads Generated: 76779995
Loads sent to L1D: 76713005
Stores Generated: 2230582
Stores sent to L1D: 2230588
Major fault: 0 Minor fault: 36865
Allocated PAGES: 36865
Total Load insts: 93542176
Total Non-spec loads: 6528170
Percentage of speculative loads: 93.0212
L1D response latency: 90.5635 cycles
Load retirement latency: 168.073 cycles

LATENCY_FILL: 90.1379 9197142

DRAM Statistics
 CHANNEL 0
 RQ ROW_BUFFER_HIT:    1900941  ROW_BUFFER_MISS:    3558972
 DBUS_CONGESTED:       5544
 WQ ROW_BUFFER_HIT:     217009  ROW_BUFFER_MISS:     512544  FULL:          0

 AVG_CONGESTED_CYCLE: 4
 All warmup complete: 2
Channel 0 Bank busy for read cycles: 0
Channel 0 Bank busy for write cycles: 0
Channel 0
Rank 0
0banks busy for read cycles: 114504291
0banks busy for write cycles: 325624
1banks busy for read cycles: 150134225
1banks busy for write cycles: 53309882
2banks busy for read cycles: 89740831
2banks busy for write cycles: 21339256
3banks busy for read cycles: 44182779
3banks busy for write cycles: 8323971
4banks busy for read cycles: 16998896
4banks busy for write cycles: 3553289
5banks busy for read cycles: 5964058
5banks busy for write cycles: 1765218
6banks busy for read cycles: 2776377
6banks busy for write cycles: 1065554
7banks busy for read cycles: 1964297
7banks busy for write cycles: 749944
8banks busy for read cycles: 4860099
8banks busy for write cycles: 716240

CPU 0 Branch Prediction Accuracy: 97.7755% MPKI: 3.30878 Average ROB Occupancy at Mispredict: 166.491
Branch types
NOT_BRANCH: 170251444 85.1257%
BRANCH_DIRECT_JUMP: 9220890 4.61044%
BRANCH_INDIRECT: 0 0%
BRANCH_CONDITIONAL: 20524873 10.2624%
BRANCH_DIRECT_CALL: 1300 0.00065%
BRANCH_INDIRECT_CALL: 0 0%
BRANCH_RETURN: 1300 0.00065%
BRANCH_OTHER: 0 0%

DRAM PAGES: 1048576
Allocated PAGES: 36865
