
*** ChampSim Multicore Out-of-Order Simulator ***

Warmup Instructions: 50000000
Simulation Instructions: 200000000
Number of CPUs: 1
LLC sets: 2048
LLC ways: 16
Secure Berti: OFF
Berti: OFF
Berti Fill: OFF
On commit prefetching: OFF
L2 LLC Bypass speculative loads: OFF
Off-chip DRAM Size: 4096 MB Channels: 1 Width: 64-bit Data Rate: 6400 MT/s
CPU 0 runs /home/sumon/secure_berti/Berti_Baseline/../../traces/gap/sssp-5.trace.gz
.gz
BTB has LRU replacement policy
ITLB has LRU replacement policy
DTLB has LRU replacement policy
STLB has LRU replacement policy
L1I has LRU replacement policy
History Sets: 8
History Ways: 16
BERTI Size: 16
BERTI Stride Size: 16
L1D has LRU replacement policy
L2C has LRU replacement policy
LLC has LRU replacement policy
Heartbeat CPU 0 instructions: 10000001 cycles: 3078063 heartbeat IPC: 3.2488 cumulative IPC: 3.2488 (Simulation time: 0 hr 0 min 18 sec) 
Heartbeat CPU 0 instructions: 20000000 cycles: 6134358 heartbeat IPC: 3.27194 cumulative IPC: 3.26032 (Simulation time: 0 hr 0 min 46 sec) 
Heartbeat CPU 0 instructions: 30000001 cycles: 9208828 heartbeat IPC: 3.25259 cumulative IPC: 3.25774 (Simulation time: 0 hr 1 min 8 sec) 
Heartbeat CPU 0 instructions: 40000000 cycles: 12296351 heartbeat IPC: 3.23884 cumulative IPC: 3.253 (Simulation time: 0 hr 1 min 30 sec) 
Heartbeat CPU 0 instructions: 50000003 cycles: 15388352 heartbeat IPC: 3.23415 cumulative IPC: 3.24921 (Simulation time: 0 hr 1 min 53 sec) 

Warmup complete CPU 0 instructions: 50000003 cycles: 15388352 (Simulation time: 0 hr 1 min 53 sec) 

Heartbeat CPU 0 instructions: 60000002 cycles: 45208741 heartbeat IPC: 0.335341 cumulative IPC: 0.335341 (Simulation time: 0 hr 2 min 30 sec) 
Heartbeat CPU 0 instructions: 70000001 cycles: 74038624 heartbeat IPC: 0.346862 cumulative IPC: 0.341004 (Simulation time: 0 hr 3 min 32 sec) 
Heartbeat CPU 0 instructions: 80000000 cycles: 101377599 heartbeat IPC: 0.365778 cumulative IPC: 0.348881 (Simulation time: 0 hr 4 min 42 sec) 
Heartbeat CPU 0 instructions: 90000001 cycles: 129039980 heartbeat IPC: 0.361502 cumulative IPC: 0.351953 (Simulation time: 0 hr 5 min 56 sec) 
Heartbeat CPU 0 instructions: 100000000 cycles: 156153765 heartbeat IPC: 0.368816 cumulative IPC: 0.355201 (Simulation time: 0 hr 7 min 10 sec) 
Heartbeat CPU 0 instructions: 110000000 cycles: 182931163 heartbeat IPC: 0.373449 cumulative IPC: 0.358117 (Simulation time: 0 hr 8 min 25 sec) 
Heartbeat CPU 0 instructions: 120000000 cycles: 209136452 heartbeat IPC: 0.381602 cumulative IPC: 0.361294 (Simulation time: 0 hr 9 min 40 sec) 
Heartbeat CPU 0 instructions: 130000000 cycles: 235214730 heartbeat IPC: 0.383461 cumulative IPC: 0.363924 (Simulation time: 0 hr 10 min 40 sec) 
Heartbeat CPU 0 instructions: 140000000 cycles: 261001985 heartbeat IPC: 0.387788 cumulative IPC: 0.366429 (Simulation time: 0 hr 11 min 24 sec) 
Heartbeat CPU 0 instructions: 150000000 cycles: 286621935 heartbeat IPC: 0.390321 cumulative IPC: 0.368686 (Simulation time: 0 hr 12 min 9 sec) 
Heartbeat CPU 0 instructions: 160000000 cycles: 311976204 heartbeat IPC: 0.394411 cumulative IPC: 0.370885 (Simulation time: 0 hr 12 min 54 sec) 
Heartbeat CPU 0 instructions: 170000002 cycles: 337260607 heartbeat IPC: 0.395501 cumulative IPC: 0.372819 (Simulation time: 0 hr 13 min 39 sec) 
Heartbeat CPU 0 instructions: 180000000 cycles: 362573983 heartbeat IPC: 0.395048 cumulative IPC: 0.374439 (Simulation time: 0 hr 14 min 24 sec) 
Heartbeat CPU 0 instructions: 190000000 cycles: 387612076 heartbeat IPC: 0.399391 cumulative IPC: 0.376118 (Simulation time: 0 hr 15 min 8 sec) 
Heartbeat CPU 0 instructions: 200000001 cycles: 412588335 heartbeat IPC: 0.40038 cumulative IPC: 0.377644 (Simulation time: 0 hr 15 min 49 sec) 
Heartbeat CPU 0 instructions: 210000000 cycles: 437320286 heartbeat IPC: 0.404335 cumulative IPC: 0.379208 (Simulation time: 0 hr 16 min 27 sec) 
Heartbeat CPU 0 instructions: 220000000 cycles: 462267806 heartbeat IPC: 0.400841 cumulative IPC: 0.380416 (Simulation time: 0 hr 17 min 4 sec) 
Heartbeat CPU 0 instructions: 230000002 cycles: 487047166 heartbeat IPC: 0.403562 cumulative IPC: 0.381632 (Simulation time: 0 hr 17 min 39 sec) 
Heartbeat CPU 0 instructions: 240000002 cycles: 511518069 heartbeat IPC: 0.408649 cumulative IPC: 0.382964 (Simulation time: 0 hr 18 min 11 sec) 
Heartbeat CPU 0 instructions: 250000000 cycles: 536169645 heartbeat IPC: 0.405654 cumulative IPC: 0.384038 (Simulation time: 0 hr 18 min 44 sec) 
Finished CPU 0 instructions: 200000001 cycles: 520781294 cumulative IPC: 0.384038 (Simulation time: 0 hr 18 min 44 sec) 

ChampSim completed all CPUs

Region of Interest Statistics

CPU 0 cumulative IPC: 0.384038 instructions: 200000001 cycles: 520781294
ITLB TOTAL     ACCESS:   24399402  HIT:   24399402  MISS:          0  HIT %:        100  MISS %:          0   MPKI: 0
ITLB Test counter:          0
ITLB LOAD TRANSLATION ACCESS:   24399402  HIT:   24399402  MISS:          0  HIT %:        100  MISS %:          0   MPKI: 0
ITLB PREFETCH  REQUESTED:          0  ISSUED:          0  USEFUL:          0  USELESS:          0
ITLB USEFUL LOAD PREFETCHES:          0 PREFETCH ISSUED TO LOWER LEVEL:          0  ACCURACY: -nan
ITLB TIMELY PREFETCHES:          0 LATE PREFETCHES: 0 DROPPED PREFETCHES: 0
ITLB COMMIT LATE PREFETCHES: 0 MISSED OPPORTUNITY: 0 LATE IN PQ: 0 UNCOVERED: 0
ITLB COMMIT LATE MSHR PREFETCHES: 0
ITLB MPKI TOTAL: 0 MSHR LATE: 0 PQ LATE: 0 COMMIT LATE: 0 MISSED OPPORTUNITY: 0 UNCOVERED: 0
ITLB PREFETCHES SAME FILL-ORIGIN LEVEL: 0 DIFFERENT FILL-ORIGIN LEVEL: 0
ITLB AVERAGE MISS LATENCY: -nan cycles
ITLB AVERAGE MISS LATENCY LOAD: -nan cycles
ITLB AVERAGE MISS LATENCY PREFETCH: -nan cycles
ITLB AVERAGE MSHR OCCUPANCY: 0
ITLB MSHR FULL: 0
ITLB RQ	ACCESS:   25072536	FORWARD:          0	MERGED:     673134	TO_CACHE:   24399402

DTLB TOTAL     ACCESS:   43400159  HIT:   38878209  MISS:    4521950  HIT %:    89.5808  MISS %:    10.4192   MPKI: 22.6097
DTLB Test counter:          0
DTLB LOAD TRANSLATION ACCESS:   43400159  HIT:   38878209  MISS:    4521950  HIT %:    89.5808  MISS %:    10.4192   MPKI: 22.6097
DTLB PREFETCH  REQUESTED:          0  ISSUED:          0  USEFUL:          0  USELESS:          0
DTLB USEFUL LOAD PREFETCHES:          0 PREFETCH ISSUED TO LOWER LEVEL:          0  ACCURACY: -nan
DTLB TIMELY PREFETCHES:          0 LATE PREFETCHES: 0 DROPPED PREFETCHES: 0
DTLB COMMIT LATE PREFETCHES: 0 MISSED OPPORTUNITY: 0 LATE IN PQ: 0 UNCOVERED: 0
DTLB COMMIT LATE MSHR PREFETCHES: 0
DTLB MPKI TOTAL: 0 MSHR LATE: 0 PQ LATE: 0 COMMIT LATE: 0 MISSED OPPORTUNITY: 0 UNCOVERED: 0
DTLB PREFETCHES SAME FILL-ORIGIN LEVEL: 0 DIFFERENT FILL-ORIGIN LEVEL: 0
DTLB AVERAGE MISS LATENCY: 11.5627 cycles
DTLB AVERAGE MISS LATENCY LOAD: -nan cycles
DTLB AVERAGE MISS LATENCY PREFETCH: -nan cycles
DTLB AVERAGE MSHR OCCUPANCY: 0.169655
DTLB MSHR FULL: 9.18457e-08
DTLB RQ	ACCESS:   45710761	FORWARD:          0	MERGED:    2159457	TO_CACHE:   43551304

STLB TOTAL     ACCESS:   10039070  HIT:    9976862  MISS:      62208  HIT %:    99.3803  MISS %:   0.619659   MPKI: 0.31104
STLB Test counter:          0
STLB LOAD TRANSLATION ACCESS:    4521950  HIT:    4464212  MISS:      57738  HIT %:    98.7232  MISS %:    1.27684   MPKI: 0.28869
STLB TRANSLATION FROM L1D PREFETCHER ACCESS:    5517120  HIT:    5512650  MISS:       4470  HIT %:     99.919  MISS %:  0.0810205   MPKI: 0.02235
STLB PREFETCH  REQUESTED:          0  ISSUED:          0  USEFUL:       4299  USELESS:        172
STLB USEFUL LOAD PREFETCHES:       4299 PREFETCH ISSUED TO LOWER LEVEL:          0  ACCURACY: inf
STLB TIMELY PREFETCHES:       4299 LATE PREFETCHES: 4467 DROPPED PREFETCHES: 2881052
STLB COMMIT LATE PREFETCHES: 0 MISSED OPPORTUNITY: 0 LATE IN PQ: 0 UNCOVERED: 0
STLB COMMIT LATE MSHR PREFETCHES: 0
STLB MPKI TOTAL: 0 MSHR LATE: 0.022335 PQ LATE: 0 COMMIT LATE: 0 MISSED OPPORTUNITY: 0 UNCOVERED: 0
STLB PREFETCHES SAME FILL-ORIGIN LEVEL: 0 DIFFERENT FILL-ORIGIN LEVEL: 0
STLB AVERAGE MISS LATENCY: 177.228 cycles
STLB AVERAGE MISS LATENCY LOAD: -nan cycles
STLB AVERAGE MISS LATENCY PREFETCH: -nan cycles
STLB AVERAGE MSHR OCCUPANCY: 0.252679
STLB MSHR FULL: 0
STLB RQ	ACCESS:   39337869	FORWARD:          0	MERGED:   26111667	TO_CACHE:   13226202

STLB Hit, L1D data hit: 0
STLB Hit, L2C data hit: 0
STLB Hit, LLC data hit: 0
STLB Hit, LLC data miss: 0
STLB STLB hints to L2: 0
L1D TOTAL     ACCESS:   70794201  HIT:   59865962  MISS:   10928239  HIT %:    84.5634  MISS %:    15.4366   MPKI: 54.6412
L1D Test counter:          0
L1D LOAD      ACCESS:   43271483  HIT:   34079301  MISS:    9390814  HIT %:     78.757  MISS %:     21.243   MPKI: 45.9609
L1D RFO       ACCESS:    2056224  HIT:    1580732  MISS:     475492  HIT %:    76.8755  MISS %:    23.1245   MPKI: 2.37746
L1D PREFETCH  ACCESS:   25466494  HIT:   24205929  MISS:    1260565  HIT %:    95.0501  MISS %:     4.9499   MPKI: 6.30282
L1D PREFETCH  REQUESTED:   86584217  ISSUED:   86372227  USEFUL:    1138238  USELESS:     122323
L1D USEFUL LOAD PREFETCHES:    1138238 PREFETCH ISSUED TO LOWER LEVEL:    5176567  ACCURACY: 21.9883
L1D TIMELY PREFETCHES:    1138238 LATE PREFETCHES: 20573 DROPPED PREFETCHES: 4538015
L1D COMMIT LATE PREFETCHES: 0 MISSED OPPORTUNITY: 0 LATE IN PQ: 57579 UNCOVERED: 0
L1D COMMIT LATE MSHR PREFETCHES: 0
L1D MPKI TOTAL: 46.9541 MSHR LATE: 0.102865 PQ LATE: 0.287895 COMMIT LATE: 0 MISSED OPPORTUNITY: 0 UNCOVERED: 0
L1D PREFETCHES SAME FILL-ORIGIN LEVEL: 1281139 DIFFERENT FILL-ORIGIN LEVEL: 3895428
L1D AVERAGE MISS LATENCY: 97.0442 cycles
L1D AVERAGE MISS LATENCY LOAD: 89.9983 cycles
L1D AVERAGE MISS LATENCY PREFETCH: 156.694 cycles
L1D AVERAGE MSHR OCCUPANCY: 2.06882
L1D MSHR FULL: 0.0264628
L1D RQ	ACCESS:   76698852	FORWARD:          0	MERGED:   33224238	TO_CACHE:   43470113
L1D WQ	ACCESS:    2241352	FORWARD:       4501	MERGED:        704	TO_CACHE:    2240648
L1D PQ	ACCESS:   51556308	FORWARD:          0	MERGED:   16740389	TO_CACHE:   34815919

L1D UNIQUE REGIONS ACCESSED: 0
L1D REGIONS CONFLICTS: 0
L1D Cross Page Prefetch Requests: 10570346
L1D Same Page Prefetch Requests: 53498943
L1D ROI Sum of L1D PQ occupancy: 655593470
L1D PREFETCHES PUSHED FROM L2C: 0
56112c14a48c: 1
14f7c93e65d0: 1
14f7c93e6477: 1
14f7c93e657e: 1
14f7c93e658f: 1
56112c14a1c5: 1
56112c14a4af: 1
56112c14a485: 1
56112c14a442: 1
14f7c93e65cc: 1
56112c14a5c5: 1
56112c14a4aa: 1
56112c14a322: 1
56112c14a386: 1
56112c148710: 1
7ffc04bd1d75: 1
14f7c93e65c8: 1
14f7c93e66c3: 2
14f7c93e65d4: 2
14f7c93c345d: 2
14f7c93e65c5: 3
14f7c93c020e: 3
14f7c93bf913: 3
14f7c93c3457: 4
14f7c93c2cf9: 4
14f7c93c344d: 4
14f7c93c0252: 5
14f7c93c339a: 5
14f7c93c2d67: 5
14f7c93c33a4: 5
14f7c93e6650: 5
14f7c93c021e: 6
56112c14a568: 6
14f7c93bff2b: 6
14f7c93c2d3b: 8
14f7c93bf795: 9
14f7c93c338c: 10
14f7c93c2ccc: 11
14f7c93e6646: 11
14f7c93e664b: 11
14f7c93c024c: 11
14f7c93bfe6c: 13
14f7c93c331c: 16
14f7c93c2207: 16
14f7c93c21f4: 16
14f7c93bff19: 16
14f7c93c220e: 16
14f7c93c2e41: 16
14f7c93bf62d: 17
14f7c93c012d: 18
14f7c93c2d4d: 19
56112c14a585: 20
14f7c93bff46: 20
14f7c93c2a12: 21
14f7c93c013f: 22
14f7c93c0135: 23
56112c14a4d3: 23
14f7c93c015a: 24
14f7c93c0106: 24
56112c14a317: 25
14f7c93c2d43: 26
14f7c93bfebb: 28
14f7c93bf896: 29
14f7c93bf867: 29
14f7c93c00ec: 30
14f7c93bfe97: 31
14f7c93e6641: 34
14f7c93e6672: 35
14f7c93c2cde: 36
14f7c93e663e: 36
14f7c93c2cb6: 41
14f7c93c2cd4: 42
14f7c93e674a: 45
14f7c93c2a09: 46
14f7c93c2d7f: 46
56112c14a32f: 46
56112c14a327: 46
14f7c93c299f: 46
56112c14a539: 46
14f7c93c29a6: 46
14f7c93c2971: 46
14f7c93bfeb2: 49
14f7c93c2c4f: 51
14f7c93c2c61: 51
14f7c93c2a27: 51
14f7c93c2c95: 51
14f7c93c2c45: 51
14f7c93e66cf: 54
14f7c93c2c88: 56
14f7c93e66cb: 59
14f7c93e66c7: 62
14f7c93c0174: 63
14f7c93c010a: 65
14f7c93bfef2: 68
14f7c93c298d: 72
14f7c93bf5a7: 74
14f7c93bff10: 78
14f7c93c0123: 81
14f7c93bfc11: 87
14f7c93c00e6: 87
14f7c93c2c6b: 101
14f7c93bfbf5: 137
14f7c93bf8f4: 151
14f7c93bfc15: 164
14f7c93c00f0: 166
14f7c93e66d3: 167
14f7c93bf60d: 188
14f7c93bf8e8: 200
14f7c93bff73: 215
14f7c93bf65b: 218
14f7c93e66f6: 222
14f7c93e66c4: 225
14f7c93bf58f: 235
14f7c93bf5f4: 240
14f7c93c2e55: 242
14f7c93c2d1a: 242
14f7c93c20e3: 242
14f7c93bf323: 243
14f7c93bf574: 243
14f7c93bf4f8: 244
14f7c93c20c1: 259
14f7c93c2076: 259
14f7c93c20cf: 259
14f7c93c20af: 259
14f7c9d5c3f0: 261
14f7c93c207d: 261
56112c1485b0: 261
56112c148580: 261
14f7c93c2961: 262
14f7c93c2978: 262
56112c148720: 262
14f7c9d5bb30: 262
14f7c93bf581: 273
14f7c93e667f: 362
14f7c93e6682: 993
14f7c93e6686: 1496
56112c14a1eb: 1551
14f7c93e668a: 2755
56112c14a1e3: 3358
56112c14a1b8: 3496
14f7c93e6703: 8704
14f7c93e670a: 11003
56112c14a1e7: 12030
56112c14a1d5: 12317
14f7c93e6706: 13749
14f7c93e670e: 13920
56112c14a2dc: 25316
56112c14a200: 36524
56112c14a2d8: 202387
56112c14a226: 8832192
L1I TOTAL     ACCESS:   25072534  HIT:   25072534  MISS:          0  HIT %:        100  MISS %:          0   MPKI: 0
L1I Test counter:          0
L1I LOAD      ACCESS:   25072534  HIT:   25072534  MISS:          0  HIT %:        100  MISS %:          0   MPKI: 0
L1I PREFETCH  REQUESTED:          0  ISSUED:          0  USEFUL:          0  USELESS:          0
L1I USEFUL LOAD PREFETCHES:          0 PREFETCH ISSUED TO LOWER LEVEL:          0  ACCURACY: -nan
L1I TIMELY PREFETCHES:          0 LATE PREFETCHES: 0 DROPPED PREFETCHES: 0
L1I COMMIT LATE PREFETCHES: 0 MISSED OPPORTUNITY: 0 LATE IN PQ: 0 UNCOVERED: 0
L1I COMMIT LATE MSHR PREFETCHES: 0
L1I MPKI TOTAL: 0 MSHR LATE: 0 PQ LATE: 0 COMMIT LATE: 0 MISSED OPPORTUNITY: 0 UNCOVERED: 0
L1I PREFETCHES SAME FILL-ORIGIN LEVEL: 0 DIFFERENT FILL-ORIGIN LEVEL: 0
L1I AVERAGE MISS LATENCY: -nan cycles
L1I AVERAGE MISS LATENCY LOAD: -nan cycles
L1I AVERAGE MISS LATENCY PREFETCH: -nan cycles
L1I AVERAGE MSHR OCCUPANCY: 0
L1I MSHR FULL: 0
L1I RQ	ACCESS:   38874138	FORWARD:          0	MERGED:   13801602	TO_CACHE:   25072536

BTB TOTAL     ACCESS:   29044147  HIT:   29044001  MISS:        146  HIT %:    99.9995  MISS %: 0.000502683   MPKI: 0.00073
BTB Test counter:          0
BTB BRANCH_DIRECT_JUMP	ACCESS:    9217196  HIT:    9217156  MISS:         40
BTB BRANCH_INDIRECT	ACCESS:          0  HIT:          0  MISS:          0
BTB BRANCH_CONDITIONAL	ACCESS:   19824303  HIT:   19824221  MISS:         82
BTB BRANCH_DIRECT_CALL	ACCESS:       1324  HIT:       1315  MISS:          9
BTB BRANCH_INDIRECT_CALL	ACCESS:          0  HIT:          0  MISS:          0
BTB BRANCH_RETURN	ACCESS:       1324  HIT:       1309  MISS:         15
BTB BRANCH_OTHER ACCESS:          0  HIT:          0  MISS:          0

L2C TOTAL     ACCESS:   18507457  HIT:    9159558  MISS:    9347899  HIT %:    49.4912  MISS %:    50.5088   MPKI: 46.7395
L2C Test counter:          0
L2C LOAD      ACCESS:    9171607  HIT:    2377258  MISS:    6794350  HIT %:    25.9198  MISS %:    74.0802   MPKI: 33.9717
L2C DATA LOAD MPKI: 33.9717
L2C INSTRUCTION LOAD MPKI: 0
L2C RFO       ACCESS:     475486  HIT:     297154  MISS:     178332  HIT %:    62.4948  MISS %:    37.5052   MPKI: 0.89166
L2C PREFETCH  ACCESS:    4555499  HIT:    2232188  MISS:    2323311  HIT %:    48.9999  MISS %:    51.0001   MPKI: 11.6166
L2C DATA PREFETCH MPKI: 11.6166
L2C INSTRUCTION PREFETCH MPKI: 0
L2C WRITEBACK ACCESS:    1336507  HIT:    1332049  MISS:       4458  HIT %:    99.6664  MISS %:   0.333556   MPKI: 0.02229
L2C LOAD TRANSLATION ACCESS:      69518  HIT:      27070  MISS:      42448  HIT %:    38.9396  MISS %:    61.0604   MPKI: 0.21224
L2C TRANSLATION FROM L1D PREFETCHER ACCESS:    2898840  HIT:    2893839  MISS:       5001  HIT %:    99.8275  MISS %:   0.172517   MPKI: 0.025005
L2C PREFETCH  REQUESTED:          0  ISSUED:          0  USEFUL:     219316  USELESS:    2112507
L2C USEFUL LOAD PREFETCHES:     219316 PREFETCH ISSUED TO LOWER LEVEL:    2376891  ACCURACY: 9.22701
L2C TIMELY PREFETCHES:     219316 LATE PREFETCHES: 53581 DROPPED PREFETCHES: 0
L2C COMMIT LATE PREFETCHES: 0 MISSED OPPORTUNITY: 0 LATE IN PQ: 0 UNCOVERED: 0
L2C COMMIT LATE MSHR PREFETCHES: 0
L2C MPKI TOTAL: 33.9717 MSHR LATE: 0.267905 PQ LATE: 0 COMMIT LATE: 0 MISSED OPPORTUNITY: 0 UNCOVERED: 0
L2C PREFETCHES SAME FILL-ORIGIN LEVEL: 1435435 DIFFERENT FILL-ORIGIN LEVEL: 0
L2C AVERAGE MISS LATENCY: 120.41 cycles
L2C AVERAGE MISS LATENCY LOAD: 101.248 cycles
L2C AVERAGE MISS LATENCY PREFETCH: 172.733 cycles
L2C AVERAGE MSHR OCCUPANCY: 2.42007
L2C MSHR FULL: 0.000100819
L2C RQ	ACCESS:   12615460	FORWARD:          0	MERGED:          0	TO_CACHE:   12615452
L2C WQ	ACCESS:    1336507	FORWARD:          8	MERGED:          0	TO_CACHE:    1336507
L2C PQ	ACCESS:    5176558	FORWARD:          0	MERGED:       2023	TO_CACHE:    5174535

L2C Instructions Evicting Data 0
L2C Translations Evicting Data 47169
L2C Data Evicting Data 9248890
L2C Instructions Evicting Instructions 0
L2C Translations Evicting Instructions 0
L2C Data Evicting Instructions 0
L2C Instructions Evicting Translations 0
L2C Translations Evicting Translations 280
L2C Data Evicting Translations 47102
L2C Dense regions hint from L2: 0
56112c148710: 1
14f7c93e65cc: 1
56112c14a442: 1
56112c14a568: 1
56112c14a1c5: 1
56112c14a5c5: 1
14f7c93e65c8: 1
14f7c93e658f: 1
14f7c93e657e: 1
14f7c93e65d0: 1
14f7c93e6477: 1
7ffc04bd1d75: 1
56112c14a539: 1
14f7c93bf913: 2
14f7c93c2a27: 2
14f7c93c2c61: 2
14f7c93c345d: 2
14f7c93e65d4: 2
14f7c93c2cf9: 3
14f7c93c020e: 3
14f7c93c2c95: 3
14f7c93e65c5: 3
14f7c93c2c45: 3
14f7c93c2c4f: 4
14f7c93c2d7f: 4
14f7c93c33a4: 4
14f7c93c3457: 4
14f7c93c2d67: 4
14f7c93c344d: 4
56112c14a4d3: 5
14f7c93c0252: 5
14f7c93c339a: 5
14f7c93bff2b: 5
14f7c93e6650: 5
14f7c93c021e: 6
14f7c93bf795: 8
14f7c93c2d3b: 8
14f7c93c2c88: 9
14f7c93e664b: 10
14f7c93c338c: 10
14f7c93c2ccc: 11
14f7c93e6646: 11
14f7c93c024c: 11
14f7c93bfe6c: 12
56112c14a32f: 12
14f7c93c220e: 15
14f7c93c21f4: 16
14f7c93c2e41: 16
14f7c93c331c: 16
14f7c93c2207: 16
14f7c93bff19: 16
14f7c93c012d: 17
14f7c93bf62d: 17
14f7c93e6641: 19
14f7c93c2d4d: 19
14f7c93c0106: 20
14f7c93bff46: 20
14f7c93c013f: 21
14f7c93c2a12: 21
14f7c93bf896: 22
14f7c93c0135: 22
14f7c93c298d: 22
14f7c93bf867: 23
14f7c93c015a: 23
14f7c93c2d43: 25
14f7c93c00ec: 26
14f7c93bfebb: 27
14f7c93e6672: 27
14f7c93bfe97: 30
14f7c93c2cb6: 34
14f7c93c2cde: 35
14f7c93e663e: 35
14f7c93c2cd4: 41
56112c14a327: 46
14f7c93bfeb2: 47
14f7c93e66cf: 54
14f7c93bf5a7: 56
14f7c93c010a: 57
14f7c93c2c6b: 57
14f7c93e66cb: 59
14f7c93e66c7: 62
14f7c93c0174: 63
14f7c93bfef2: 66
14f7c93e66d3: 74
14f7c93bff10: 75
14f7c93c0123: 79
14f7c93c00e6: 81
14f7c93bfc11: 84
14f7c93bfbf5: 129
14f7c93bf8f4: 137
14f7c93c00f0: 150
14f7c93bfc15: 156
14f7c93bff73: 169
14f7c93bf65b: 178
14f7c93bf60d: 179
14f7c93e66f6: 181
14f7c93bf8e8: 184
14f7c93bf4f8: 188
14f7c93bf323: 191
14f7c93bf58f: 191
14f7c9d5c3f0: 195
14f7c93c2e55: 196
14f7c93c20e3: 197
14f7c93c2076: 202
14f7c93c20c1: 202
14f7c93bf574: 203
14f7c93c20af: 203
56112c148720: 204
14f7c93c20cf: 204
56112c1485b0: 207
14f7c9d5bb30: 207
14f7c93c2978: 207
56112c148580: 211
14f7c93c207d: 212
14f7c93c2961: 215
14f7c93bf5f4: 218
14f7c93bf581: 219
14f7c93e66c4: 224
56112c14a1e3: 226
14f7c93c2d1a: 237
14f7c93e667f: 251
56112c14a1b8: 444
14f7c93e6682: 542
14f7c93e6686: 836
14f7c93e668a: 1476
56112c14a2dc: 1479
56112c14a1eb: 1551
14f7c93e6703: 4947
14f7c93e670a: 5448
14f7c93e6706: 6783
14f7c93e670e: 7061
56112c14a1d5: 9814
56112c14a1e7: 12028
56112c14a2d8: 12212
56112c14a200: 25990
56112c14a226: 6695469
PSCL5 TOTAL     ACCESS:    2947443  HIT:    2947443  MISS:          0  HIT %:        100  MISS %:          0   MPKI: 0
PSCL5 Test counter:          0
PSCL5 LOAD TRANSLATION ACCESS:      57454  HIT:      57454  MISS:          0  HIT %:        100  MISS %:          0   MPKI: 0
PSCL5 TRANSLATION FROM L1D PREFETCHER ACCESS:    2889989  HIT:    2889989  MISS:          0  HIT %:        100  MISS %:          0   MPKI: 0
PSCL5 PREFETCH  REQUESTED:          0  ISSUED:          0  USEFUL:          0  USELESS:          0
PSCL5 USEFUL LOAD PREFETCHES:          0 PREFETCH ISSUED TO LOWER LEVEL:          0  ACCURACY: -nan
PSCL5 TIMELY PREFETCHES:          0 LATE PREFETCHES: 0 DROPPED PREFETCHES: 0
PSCL5 COMMIT LATE PREFETCHES: 0 MISSED OPPORTUNITY: 0 LATE IN PQ: 0 UNCOVERED: 0
PSCL5 COMMIT LATE MSHR PREFETCHES: 0
PSCL5 MPKI TOTAL: 0 MSHR LATE: 0 PQ LATE: 0 COMMIT LATE: 0 MISSED OPPORTUNITY: 0 UNCOVERED: 0
PSCL5 PREFETCHES SAME FILL-ORIGIN LEVEL: 0 DIFFERENT FILL-ORIGIN LEVEL: 0

PSCL4 TOTAL     ACCESS:    2947443  HIT:    2947443  MISS:          0  HIT %:        100  MISS %:          0   MPKI: 0
PSCL4 Test counter:          0
PSCL4 LOAD TRANSLATION ACCESS:      57454  HIT:      57454  MISS:          0  HIT %:        100  MISS %:          0   MPKI: 0
PSCL4 TRANSLATION FROM L1D PREFETCHER ACCESS:    2889989  HIT:    2889989  MISS:          0  HIT %:        100  MISS %:          0   MPKI: 0
PSCL4 PREFETCH  REQUESTED:          0  ISSUED:          0  USEFUL:          0  USELESS:          0
PSCL4 USEFUL LOAD PREFETCHES:          0 PREFETCH ISSUED TO LOWER LEVEL:          0  ACCURACY: -nan
PSCL4 TIMELY PREFETCHES:          0 LATE PREFETCHES: 0 DROPPED PREFETCHES: 0
PSCL4 COMMIT LATE PREFETCHES: 0 MISSED OPPORTUNITY: 0 LATE IN PQ: 0 UNCOVERED: 0
PSCL4 COMMIT LATE MSHR PREFETCHES: 0
PSCL4 MPKI TOTAL: 0 MSHR LATE: 0 PQ LATE: 0 COMMIT LATE: 0 MISSED OPPORTUNITY: 0 UNCOVERED: 0
PSCL4 PREFETCHES SAME FILL-ORIGIN LEVEL: 0 DIFFERENT FILL-ORIGIN LEVEL: 0

PSCL3 TOTAL     ACCESS:    2947443  HIT:    2947443  MISS:          0  HIT %:        100  MISS %:          0   MPKI: 0
PSCL3 Test counter:          0
PSCL3 LOAD TRANSLATION ACCESS:      57454  HIT:      57454  MISS:          0  HIT %:        100  MISS %:          0   MPKI: 0
PSCL3 TRANSLATION FROM L1D PREFETCHER ACCESS:    2889989  HIT:    2889989  MISS:          0  HIT %:        100  MISS %:          0   MPKI: 0
PSCL3 PREFETCH  REQUESTED:          0  ISSUED:          0  USEFUL:          0  USELESS:          0
PSCL3 USEFUL LOAD PREFETCHES:          0 PREFETCH ISSUED TO LOWER LEVEL:          0  ACCURACY: -nan
PSCL3 TIMELY PREFETCHES:          0 LATE PREFETCHES: 0 DROPPED PREFETCHES: 0
PSCL3 COMMIT LATE PREFETCHES: 0 MISSED OPPORTUNITY: 0 LATE IN PQ: 0 UNCOVERED: 0
PSCL3 COMMIT LATE MSHR PREFETCHES: 0
PSCL3 MPKI TOTAL: 0 MSHR LATE: 0 PQ LATE: 0 COMMIT LATE: 0 MISSED OPPORTUNITY: 0 UNCOVERED: 0
PSCL3 PREFETCHES SAME FILL-ORIGIN LEVEL: 0 DIFFERENT FILL-ORIGIN LEVEL: 0

PSCL2 TOTAL     ACCESS:    2938667  HIT:    2926526  MISS:      12141  HIT %:    99.5869  MISS %:   0.413147   MPKI: 0.060705
PSCL2 Test counter:          0
PSCL2 LOAD TRANSLATION ACCESS:      57529  HIT:      45388  MISS:      12141  HIT %:    78.8959  MISS %:    21.1041   MPKI: 0.060705
PSCL2 TRANSLATION FROM L1D PREFETCHER ACCESS:    2881138  HIT:    2881138  MISS:          0  HIT %:        100  MISS %:          0   MPKI: 0
PSCL2 PREFETCH  REQUESTED:          0  ISSUED:          0  USEFUL:          0  USELESS:          0
PSCL2 USEFUL LOAD PREFETCHES:          0 PREFETCH ISSUED TO LOWER LEVEL:          0  ACCURACY: -nan
PSCL2 TIMELY PREFETCHES:          0 LATE PREFETCHES: 0 DROPPED PREFETCHES: 0
PSCL2 COMMIT LATE PREFETCHES: 0 MISSED OPPORTUNITY: 0 LATE IN PQ: 0 UNCOVERED: 0
PSCL2 COMMIT LATE MSHR PREFETCHES: 0
PSCL2 MPKI TOTAL: 0 MSHR LATE: 0 PQ LATE: 0 COMMIT LATE: 0 MISSED OPPORTUNITY: 0 UNCOVERED: 0
PSCL2 PREFETCHES SAME FILL-ORIGIN LEVEL: 0 DIFFERENT FILL-ORIGIN LEVEL: 0

LLC TOTAL     ACCESS:   10190721  HIT:    4782826  MISS:    5407895  HIT %:    46.9331  MISS %:    53.0669   MPKI: 27.0395
LLC Test counter:          0
LLC LOAD      ACCESS:    6740768  HIT:    3611502  MISS:    3129267  HIT %:     53.577  MISS %:     46.423   MPKI: 15.6463
LLC RFO       ACCESS:     178331  HIT:      72304  MISS:     106027  HIT %:    40.5448  MISS %:    59.4552   MPKI: 0.530135
LLC PREFETCH  ACCESS:    2376892  HIT:     248376  MISS:    2128516  HIT %:    10.4496  MISS %:    89.5504   MPKI: 10.6426
LLC WRITEBACK ACCESS:     847281  HIT:     838720  MISS:       8561  HIT %:    98.9896  MISS %:    1.01041   MPKI: 0.042805
LLC LOAD TRANSLATION ACCESS:      42448  HIT:      11679  MISS:      30769  HIT %:    27.5137  MISS %:    72.4863   MPKI: 0.153845
LLC TRANSLATION FROM L1D PREFETCHER ACCESS:       5001  HIT:        245  MISS:       4756  HIT %:    4.89902  MISS %:     95.101   MPKI: 0.02378
LLC PREFETCH  REQUESTED:          0  ISSUED:          0  USEFUL:     137291  USELESS:    2011937
LLC USEFUL LOAD PREFETCHES:     137291 PREFETCH ISSUED TO LOWER LEVEL:    2128516  ACCURACY: 6.45008
LLC TIMELY PREFETCHES:     137291 LATE PREFETCHES: 0 DROPPED PREFETCHES: 0
LLC COMMIT LATE PREFETCHES: 0 MISSED OPPORTUNITY: 0 LATE IN PQ: 0 UNCOVERED: 0
LLC COMMIT LATE MSHR PREFETCHES: 0
LLC MPKI TOTAL: 15.6463 MSHR LATE: 0 PQ LATE: 0 COMMIT LATE: 0 MISSED OPPORTUNITY: 0 UNCOVERED: 0
LLC PREFETCHES SAME FILL-ORIGIN LEVEL: 0 DIFFERENT FILL-ORIGIN LEVEL: 0
LLC AVERAGE MISS LATENCY: 157.109 cycles
LLC AVERAGE MISS LATENCY LOAD: 152.84 cycles
LLC AVERAGE MISS LATENCY PREFETCH: 160.609 cycles
LLC AVERAGE MSHR OCCUPANCY: 1.84619
LLC MSHR FULL: 0
LLC RQ	ACCESS:    6966550	FORWARD:          0	MERGED:          0	TO_CACHE:    6966549
LLC WQ	ACCESS:     847282	FORWARD:          1	MERGED:          0	TO_CACHE:     847282
LLC PQ	ACCESS:    2376891	FORWARD:          0	MERGED:          0	TO_CACHE:    2376891

LLC Dense regions hint to LLC: 0
14f7c93c345d: 1
56112c14a5c5: 1
56112c14a1c5: 1
14f7c93e658f: 1
14f7c93e65c8: 1
14f7c93bf913: 1
14f7c93e65cc: 1
56112c14a442: 1
14f7c93e657e: 1
14f7c93e65d0: 1
14f7c93e6477: 1
7ffc04bd1d75: 1
14f7c93e65d4: 1
14f7c93c2cf9: 2
14f7c93c2c45: 2
14f7c93c2c95: 2
14f7c93c2d7f: 2
14f7c93c020e: 2
14f7c93c2c4f: 2
14f7c93c2c61: 2
14f7c93c2a27: 2
14f7c93c33a4: 3
14f7c93c3457: 3
14f7c93e65c5: 3
14f7c93bff2b: 4
14f7c93e6650: 4
14f7c93c0252: 4
14f7c93c344d: 4
14f7c93c2d67: 4
14f7c93c2c88: 5
14f7c93c339a: 5
14f7c93c021e: 6
14f7c93e6641: 6
14f7c93c2d3b: 6
14f7c93e6646: 7
14f7c93c024c: 8
14f7c93bf795: 8
14f7c93c0106: 8
14f7c93e664b: 9
14f7c93bfe6c: 9
14f7c93c338c: 9
14f7c93c012d: 10
14f7c93e6672: 10
14f7c93e66d3: 11
14f7c93c2ccc: 11
14f7c93c220e: 12
14f7c93bf896: 13
14f7c93bf62d: 14
14f7c93c298d: 14
14f7c93bff19: 14
14f7c93c21f4: 14
14f7c93bf867: 14
14f7c93c2e41: 15
14f7c93bff46: 15
14f7c93c2207: 15
14f7c93bfebb: 16
14f7c93c0135: 16
14f7c93c331c: 16
14f7c93c013f: 17
14f7c93c2d4d: 18
14f7c93c2a12: 18
14f7c93c015a: 19
14f7c93c00ec: 19
14f7c93c2d43: 20
14f7c93bfe97: 22
14f7c93bf5a7: 23
14f7c93c2cb6: 30
14f7c93c2cde: 34
14f7c93bfeb2: 34
14f7c93e663e: 35
14f7c93c010a: 39
14f7c93c2cd4: 39
56112c14a327: 43
14f7c93c00e6: 54
14f7c93bfef2: 54
14f7c93e66cf: 54
14f7c93c2c6b: 57
14f7c93c0174: 57
14f7c93e66cb: 59
14f7c93e66c7: 62
14f7c93bff10: 64
14f7c93bfc11: 66
14f7c93e66f6: 67
56112c1485b0: 67
56112c14a2dc: 68
56112c14a1e3: 70
14f7c93c0123: 72
14f7c9d5c3f0: 72
56112c148580: 73
14f7c93bff73: 74
14f7c93bf4f8: 75
14f7c93bf323: 78
14f7c93c2076: 79
14f7c93c2e55: 80
56112c148720: 81
14f7c93c20e3: 83
14f7c93c20c1: 85
14f7c9d5bb30: 85
14f7c93c20cf: 87
14f7c93bf581: 87
14f7c93bf58f: 88
14f7c93c2978: 88
14f7c93bfbf5: 91
14f7c93c207d: 94
14f7c93bf8f4: 94
14f7c93c00f0: 100
14f7c93bf65b: 100
14f7c93bf574: 100
14f7c93c20af: 104
14f7c93c2961: 106
14f7c93bf8e8: 115
14f7c93bfc15: 121
14f7c93e667f: 139
14f7c93bf60d: 146
14f7c93bf5f4: 155
56112c14a1b8: 218
14f7c93e66c4: 222
14f7c93c2d1a: 230
14f7c93e6682: 291
14f7c93e6686: 442
56112c14a2d8: 577
14f7c93e668a: 641
56112c14a1eb: 1551
14f7c93e6703: 2046
14f7c93e670a: 2076
14f7c93e6706: 2494
14f7c93e670e: 2812
56112c14a1d5: 4937
56112c14a1e7: 12025
56112c14a200: 25958
56112c14a226: 3068411

RAW hits: 66075
Loads Generated: 76764930
Loads sent to L1D: 76698852
Stores Generated: 2241349
Stores sent to L1D: 2241352
Major fault: 0 Minor fault: 36864
Allocated PAGES: 36864
Total Load insts: 93559087
Total Non-spec loads: 6523238
Percentage of speculative loads: 93.0277
L1D response latency: 90.2002 cycles
Load retirement latency: 167.515 cycles

LATENCY_FILL: 89.7835 9179679

DRAM Statistics
 CHANNEL 0
 RQ ROW_BUFFER_HIT:    1872329  ROW_BUFFER_MISS:    3526965
 DBUS_CONGESTED:       5738
 WQ ROW_BUFFER_HIT:     216811  ROW_BUFFER_MISS:     510393  FULL:          0

 AVG_CONGESTED_CYCLE: 4
 All warmup complete: 2
Channel 0 Bank busy for read cycles: 0
Channel 0 Bank busy for write cycles: 0
Channel 0
Rank 0
0banks busy for read cycles: 114940814
0banks busy for write cycles: 325416
1banks busy for read cycles: 150174651
1banks busy for write cycles: 53309699
2banks busy for read cycles: 89307324
2banks busy for write cycles: 21147560
3banks busy for read cycles: 43898068
3banks busy for write cycles: 8307228
4banks busy for read cycles: 16753948
4banks busy for write cycles: 3493687
5banks busy for read cycles: 5687913
5banks busy for write cycles: 1692412
6banks busy for read cycles: 2592090
6banks busy for write cycles: 1004834
7banks busy for read cycles: 1864666
7banks busy for write cycles: 720082
8banks busy for read cycles: 4812884
8banks busy for write cycles: 748019

CPU 0 Branch Prediction Accuracy: 97.7638% MPKI: 3.32603 Average ROB Occupancy at Mispredict: 165.066
Branch types
NOT_BRANCH: 170252779 85.1264%
BRANCH_DIRECT_JUMP: 9217196 4.6086%
BRANCH_INDIRECT: 0 0%
BRANCH_CONDITIONAL: 20527371 10.2637%
BRANCH_DIRECT_CALL: 1324 0.000662%
BRANCH_INDIRECT_CALL: 0 0%
BRANCH_RETURN: 1324 0.000662%
BRANCH_OTHER: 0 0%

DRAM PAGES: 1048576
Allocated PAGES: 36864
