
*** ChampSim Multicore Out-of-Order Simulator ***

Warmup Instructions: 50000000
Simulation Instructions: 200000000
Number of CPUs: 1
LLC sets: 2048
LLC ways: 16
L0D sets: 16
L0D ways: 2
ROB size: 352
LQ size: 128
SQ size: 72
Secure Berti: OFF
Berti: OFF
Berti Fill: OFF
On commit prefetching: ON
Hit-based filter: ON
Time-guarding: ON
Free-slotting: ON
Leap-frogging: ON
Train prefetcher on L0D bypass: OFF
No translation penalty for prefetchers: OFF
Prefetch to L0D only: OFF
Prefetch to L1D only: OFF
Clean evictions: ON
Commit loads: ON
Commit write: ON
Fill commit loads to L2C, LLC: ON
DRAM IO FREQUENCY: 6400
ROB SIZE: 352
Off-chip DRAM Size: 4096 MB Channels: 1 Width: 64-bit Data Rate: 6400 MT/s
CPU 0 runs /home/sumon/secure_berti/GhostMinion/../../traces/spec/602.gcc_s-2226B.champsimtrace.xz
.xz
BTB has LRU replacement policy
ITLB has LRU replacement policy
DTLB has LRU replacement policy
STLB has LRU replacement policy
L1I has LRU replacement policy
L0D has LRU replacement policy
CPU 0 L1D IP-based stride prefetcher
L1D has LRU replacement policy
L2C has LRU replacement policy
LLC has LRU replacement policy
Heartbeat CPU 0 instructions: 10000002 cycles: 7723219 heartbeat IPC: 1.2948 cumulative IPC: 1.2948 (Simulation time: 0 hr 0 min 47 sec) 
Heartbeat CPU 0 instructions: 20000000 cycles: 15467298 heartbeat IPC: 1.29131 cumulative IPC: 1.29305 (Simulation time: 0 hr 1 min 35 sec) 
Heartbeat CPU 0 instructions: 30000001 cycles: 23220414 heartbeat IPC: 1.2898 cumulative IPC: 1.29197 (Simulation time: 0 hr 2 min 24 sec) 
Heartbeat CPU 0 instructions: 40000002 cycles: 30976986 heartbeat IPC: 1.28923 cumulative IPC: 1.29128 (Simulation time: 0 hr 3 min 13 sec) 
Heartbeat CPU 0 instructions: 50000000 cycles: 38696628 heartbeat IPC: 1.2954 cumulative IPC: 1.2921 (Simulation time: 0 hr 4 min 2 sec) 

Warmup complete CPU 0 instructions: 50000004 cycles: 38696629 (Simulation time: 0 hr 4 min 2 sec) 

Heartbeat CPU 0 instructions: 60000002 cycles: 100360638 heartbeat IPC: 0.162169 cumulative IPC: 0.162169 (Simulation time: 0 hr 5 min 29 sec) 
Heartbeat CPU 0 instructions: 70000000 cycles: 162479340 heartbeat IPC: 0.160982 cumulative IPC: 0.161573 (Simulation time: 0 hr 6 min 59 sec) 
Heartbeat CPU 0 instructions: 80000000 cycles: 224393922 heartbeat IPC: 0.161513 cumulative IPC: 0.161553 (Simulation time: 0 hr 8 min 31 sec) 
Heartbeat CPU 0 instructions: 90000001 cycles: 286823201 heartbeat IPC: 0.160181 cumulative IPC: 0.161208 (Simulation time: 0 hr 10 min 5 sec) 
Heartbeat CPU 0 instructions: 100000001 cycles: 349272379 heartbeat IPC: 0.16013 cumulative IPC: 0.160991 (Simulation time: 0 hr 11 min 41 sec) 
Heartbeat CPU 0 instructions: 110000000 cycles: 411397763 heartbeat IPC: 0.160965 cumulative IPC: 0.160987 (Simulation time: 0 hr 13 min 18 sec) 
Heartbeat CPU 0 instructions: 120000000 cycles: 472823341 heartbeat IPC: 0.162799 cumulative IPC: 0.161243 (Simulation time: 0 hr 14 min 30 sec) 
Heartbeat CPU 0 instructions: 130000001 cycles: 535374803 heartbeat IPC: 0.159868 cumulative IPC: 0.16107 (Simulation time: 0 hr 15 min 40 sec) 
Heartbeat CPU 0 instructions: 140000000 cycles: 597593920 heartbeat IPC: 0.160722 cumulative IPC: 0.161031 (Simulation time: 0 hr 16 min 49 sec) 
Heartbeat CPU 0 instructions: 150000001 cycles: 659824473 heartbeat IPC: 0.160693 cumulative IPC: 0.160997 (Simulation time: 0 hr 17 min 57 sec) 
Heartbeat CPU 0 instructions: 160000002 cycles: 721853895 heartbeat IPC: 0.161214 cumulative IPC: 0.161017 (Simulation time: 0 hr 19 min 4 sec) 
Heartbeat CPU 0 instructions: 170000001 cycles: 784417588 heartbeat IPC: 0.159837 cumulative IPC: 0.160918 (Simulation time: 0 hr 20 min 11 sec) 
Heartbeat CPU 0 instructions: 180000000 cycles: 846538479 heartbeat IPC: 0.160976 cumulative IPC: 0.160923 (Simulation time: 0 hr 21 min 17 sec) 
Heartbeat CPU 0 instructions: 190000002 cycles: 907822808 heartbeat IPC: 0.163174 cumulative IPC: 0.161081 (Simulation time: 0 hr 22 min 22 sec) 
Heartbeat CPU 0 instructions: 200000000 cycles: 970288394 heartbeat IPC: 0.160088 cumulative IPC: 0.161015 (Simulation time: 0 hr 23 min 26 sec) 
Heartbeat CPU 0 instructions: 210000003 cycles: 1032719821 heartbeat IPC: 0.160176 cumulative IPC: 0.160962 (Simulation time: 0 hr 24 min 30 sec) 
Heartbeat CPU 0 instructions: 220000000 cycles: 1094894311 heartbeat IPC: 0.160838 cumulative IPC: 0.160955 (Simulation time: 0 hr 25 min 34 sec) 
Heartbeat CPU 0 instructions: 230000001 cycles: 1156996636 heartbeat IPC: 0.161025 cumulative IPC: 0.160959 (Simulation time: 0 hr 26 min 35 sec) 
Heartbeat CPU 0 instructions: 240000001 cycles: 1219557827 heartbeat IPC: 0.159844 cumulative IPC: 0.1609 (Simulation time: 0 hr 27 min 37 sec) 
Heartbeat CPU 0 instructions: 250000000 cycles: 1281802850 heartbeat IPC: 0.160655 cumulative IPC: 0.160887 (Simulation time: 0 hr 28 min 39 sec) 
Finished CPU 0 instructions: 200000000 cycles: 1243106222 cumulative IPC: 0.160887 (Simulation time: 0 hr 28 min 39 sec) 
 Instruction ID: 250000373

ChampSim completed all CPUs

Region of Interest Statistics

CPU 0 cumulative IPC: 0.160887 instructions: 200000000 cycles: 1243106222
ITLB SPEC fills:          0  NON-SPEC fills:          0
ITLB Test counter :          0
ITLB Leapfrog:          0
ITLB MSHR merge:          0
ITLB TOTAL     ACCESS:   40916477  HIT:   40916477  MISS:          0  HIT %:        100  MISS %:          0   MPKI: 0
ITLB LOAD TRANSLATION NON_SPEC    ACCESS:   40916477  HIT:   40916477  MISS:          0  HIT %:        100  MISS %:          0   MPKI: 0
ITLB PREFETCH  REQUESTED:          0  ISSUED:          0  USEFUL:          0  USELESS:          0
ITLB USEFUL LOAD PREFETCHES:          0 PREFETCH ISSUED TO LOWER LEVEL:          0  ACCURACY: -nan
ITLB TIMELY PREFETCHES:          0 LATE PREFETCHES: 0 DROPPED PREFETCHES: 0
ITLB COMMIT LATE PREFETCHES: 0 MISSED OPPORTUNITY: 0 LATE IN PQ: 0 UNCOVERED: 0
ITLB COMMIT LATE MSHR PREFETCHES: 0
ITLB MPKI TOTAL: 0 MSHR LATE: 0 PQ LATE: 0 COMMIT LATE: 0 MISSED OPPORTUNITY: 0 UNCOVERED: 0
ITLB PREFETCHES SAME FILL-ORIGIN LEVEL: 0 DIFFERENT FILL-ORIGIN LEVEL: 0
ITLB AVERAGE MISS LATENCY: -nan cycles
ITLB AVERAGE MISS LATENCY LOAD: -nan cycles
ITLB AVERAGE MISS LATENCY PREFETCH: -nan cycles
ITLB AVERAGE MSHR OCCUPANCY: 0
ITLB MSHR FULL: 0
ITLB RQ	ACCESS:   41614243	FORWARD:          0	MERGED:     697766	TO_CACHE:   40916477

DTLB SPEC fills:          0  NON-SPEC fills:          0
DTLB Test counter :          0
DTLB Leapfrog:          0
DTLB MSHR merge:          0
DTLB TOTAL     ACCESS:   31340411  HIT:   31066997  MISS:     273414  HIT %:    99.1276  MISS %:   0.872401   MPKI: 1.36707
DTLB LOAD TRANSLATION NON_SPEC    ACCESS:   31340411  HIT:   31066997  MISS:     273414  HIT %:    99.1276  MISS %:   0.872401   MPKI: 1.36707
DTLB PREFETCH  REQUESTED:          0  ISSUED:          0  USEFUL:          0  USELESS:          0
DTLB USEFUL LOAD PREFETCHES:          0 PREFETCH ISSUED TO LOWER LEVEL:          0  ACCURACY: -nan
DTLB TIMELY PREFETCHES:          0 LATE PREFETCHES: 0 DROPPED PREFETCHES: 0
DTLB COMMIT LATE PREFETCHES: 0 MISSED OPPORTUNITY: 0 LATE IN PQ: 0 UNCOVERED: 0
DTLB COMMIT LATE MSHR PREFETCHES: 0
DTLB MPKI TOTAL: 0 MSHR LATE: 0 PQ LATE: 0 COMMIT LATE: 0 MISSED OPPORTUNITY: 0 UNCOVERED: 0
DTLB PREFETCHES SAME FILL-ORIGIN LEVEL: 0 DIFFERENT FILL-ORIGIN LEVEL: 0
DTLB AVERAGE MISS LATENCY: 114.141 cycles
DTLB AVERAGE MISS LATENCY LOAD: -nan cycles
DTLB AVERAGE MISS LATENCY PREFETCH: -nan cycles
DTLB AVERAGE MSHR OCCUPANCY: 0.0047115
DTLB MSHR FULL: 0
DTLB RQ	ACCESS:   36915172	FORWARD:          0	MERGED:    5573555	TO_CACHE:   31341617

STLB SPEC fills:          0  NON-SPEC fills:          0
STLB Test counter :          0
STLB Leapfrog:          0
STLB MSHR merge:          0
STLB TOTAL     ACCESS:   17104173  HIT:   16840642  MISS:     263531  HIT %:    98.4593  MISS %:    1.54074   MPKI: 1.31766
STLB LOAD TRANSLATION NON_SPEC    ACCESS:     273414  HIT:       9889  MISS:     263525  HIT %:    3.61686  MISS %:    96.3831   MPKI: 1.31763
STLB TRANSLATION FROM L1D PREFETCHER NON_SPEC    ACCESS:   16830759  HIT:   16830753  MISS:          6  HIT %:        100  MISS %: 3.5649e-05   MPKI: 3e-05
STLB PREFETCH  REQUESTED:          0  ISSUED:          0  USEFUL:          6  USELESS:          0
STLB USEFUL LOAD PREFETCHES:          6 PREFETCH ISSUED TO LOWER LEVEL:          0  ACCURACY: inf
STLB TIMELY PREFETCHES:          6 LATE PREFETCHES: 0 DROPPED PREFETCHES: 0
STLB COMMIT LATE PREFETCHES: 0 MISSED OPPORTUNITY: 0 LATE IN PQ: 0 UNCOVERED: 0
STLB COMMIT LATE MSHR PREFETCHES: 0
STLB MPKI TOTAL: 0 MSHR LATE: 0 PQ LATE: 0 COMMIT LATE: 0 MISSED OPPORTUNITY: 0 UNCOVERED: 0
STLB PREFETCHES SAME FILL-ORIGIN LEVEL: 0 DIFFERENT FILL-ORIGIN LEVEL: 0
STLB AVERAGE MISS LATENCY: 109.084 cycles
STLB AVERAGE MISS LATENCY LOAD: -nan cycles
STLB AVERAGE MISS LATENCY PREFETCH: -nan cycles
STLB AVERAGE MSHR OCCUPANCY: 0.000447961
STLB MSHR FULL: 0
STLB RQ	ACCESS:   57197779	FORWARD:          0	MERGED:   40093601	TO_CACHE:   17104178

STLB Hit, L1D data hit: 0
STLB Hit, L2C data hit: 0
STLB Hit, LLC data hit: 0
STLB Hit, LLC data miss: 0
STLB STLB hints to L2: 0
L0D SPEC fills:   12685065  NON-SPEC fills:          0
L0D TimeGuard Request with older TS:      45241 Restricted eviction:       4283 read:      92524
L0D Test counter :          0
L0D Leapfrog:          0
L0D MSHR merge:    3764962
L0D TOTAL     ACCESS:   30197346  HIT:    1710350  MISS:   28486996  HIT %:    5.66391  MISS %:    94.3361   MPKI: 142.435
L0D LOAD      TOTAL       ACCESS:   30197346  HIT:    1710350  MISS:   28486996  HIT %:    5.66391  MISS %:    94.3361   MPKI: 142.435
L0D LOAD      NON_SPEC    ACCESS:   15846650  HIT:      49000  MISS:   15797650  HIT %:   0.309214  MISS %:    99.6908   MPKI: 78.9882
L0D LOAD      SPEC        ACCESS:   14350696  HIT:    1661350  MISS:   12689346  HIT %:    11.5768  MISS %:    88.4232   MPKI: 63.4467
L0D PREFETCH  REQUESTED:          0  ISSUED:          0  USEFUL:          0  USELESS:          0
L0D USEFUL LOAD PREFETCHES:          0 PREFETCH ISSUED TO LOWER LEVEL:          0  ACCURACY: -nan
L0D TIMELY PREFETCHES:          0 LATE PREFETCHES: 0 DROPPED PREFETCHES: 0
L0D COMMIT LATE PREFETCHES: 0 MISSED OPPORTUNITY: 0 LATE IN PQ: 0 UNCOVERED: 0
L0D COMMIT LATE MSHR PREFETCHES: 0
L0D MPKI TOTAL: 161.26 MSHR LATE: 0 PQ LATE: 0 COMMIT LATE: 0 MISSED OPPORTUNITY: 0 UNCOVERED: 0
L0D PREFETCHES SAME FILL-ORIGIN LEVEL: 0 DIFFERENT FILL-ORIGIN LEVEL: 0
L0D AVERAGE MISS LATENCY: 37.8099 cycles
L0D AVERAGE MISS LATENCY LOAD: 37.8099 cycles
L0D AVERAGE MISS LATENCY PREFETCH: -nan cycles
L0D AVERAGE MSHR OCCUPANCY: 0.390431
L0D MSHR FULL: 4.41666e-07
L0D RQ	ACCESS:   71748326	FORWARD:          0	MERGED:   37786018	TO_CACHE:   33962308
L0D WQ	ACCESS:    2952864	FORWARD:          0	MERGED:          0	TO_CACHE:    2952864

L1D SPEC fills:          0  NON-SPEC fills:    6350392
L1D Test counter :    4648036
L1D Leapfrog:          0
L1D MSHR merge:    8093599
L1D TOTAL     ACCESS:   72473802  HIT:   54878167  MISS:   17595635  HIT %:    75.7214  MISS %:    24.2786   MPKI: 87.9782
L1D LOAD      TOTAL       ACCESS:   28486916  HIT:   19136651  MISS:    9350265  HIT %:     67.177  MISS %:     32.823   MPKI: 46.7513
L1D LOAD      NON_SPEC    ACCESS:   15797646  HIT:    9447254  MISS:    6350392  HIT %:    59.8017  MISS %:    40.1983   MPKI: 31.752
L1D LOAD      SPEC        ACCESS:   12689270  HIT:    9689397  MISS:    2999873  HIT %:     76.359  MISS %:     23.641   MPKI: 14.9994
L1D RFO       NON_SPEC    ACCESS:    2941120  HIT:    2936663  MISS:       4457  HIT %:    99.8485  MISS %:   0.151541   MPKI: 0.022285
L1D PREFETCH  NON_SPEC    ACCESS:   21735472  HIT:   16487259  MISS:    5248213  HIT %:    75.8542  MISS %:    24.1458   MPKI: 26.2411
L1D COMMIT LOAD NON_SPEC    ACCESS:   13645754  HIT:   13644506  MISS:       1248  HIT %:    99.9909  MISS %:  0.0091457   MPKI: 0.00624
L1D COMMIT WRITE NON_SPEC    ACCESS:    5664540  HIT:    2673088  MISS:    2991452  HIT %:    47.1899  MISS %:    52.8101   MPKI: 14.9573
L1D PREFETCH  REQUESTED:  108694894  ISSUED:  108694894  USEFUL:    4973274  USELESS:     274930
L1D USEFUL LOAD PREFETCHES:    4973274 PREFETCH ISSUED TO LOWER LEVEL:   13341764  ACCURACY: 37.276
L1D TIMELY PREFETCHES:    4973274 LATE PREFETCHES: 8093519 DROPPED PREFETCHES: 0
L1D COMMIT LATE PREFETCHES: 0 MISSED OPPORTUNITY: 0 LATE IN PQ: 0 UNCOVERED: 0
L1D COMMIT LATE MSHR PREFETCHES: 0
L1D MPKI TOTAL: 46.7517 MSHR LATE: 40.4676 PQ LATE: 0 COMMIT LATE: 0 MISSED OPPORTUNITY: 0 UNCOVERED: 0
L1D PREFETCHES SAME FILL-ORIGIN LEVEL: 13341741 DIFFERENT FILL-ORIGIN LEVEL: 23
L1D AVERAGE MISS LATENCY: 113.739 cycles
L1D AVERAGE MISS LATENCY LOAD: 103.281 cycles
L1D AVERAGE MISS LATENCY PREFETCH: 197.142 cycles
L1D AVERAGE MSHR OCCUPANCY: 1.66851
L1D MSHR FULL: 0
L1D RQ	ACCESS:   45757177	FORWARD:          0	MERGED:    3594202	TO_CACHE:   42132793
L1D WQ	ACCESS:    8617405	FORWARD:      30182	MERGED:      11687	TO_CACHE:    8605718
L1D PQ	ACCESS:  108694894	FORWARD:          0	MERGED:   51770529	TO_CACHE:   56924365

L1D UNIQUE REGIONS ACCESSED: 0
L1D REGIONS CONFLICTS: 0
L1D Cross Page Prefetch Requests: 0
L1D Same Page Prefetch Requests: 135891476
L1D ROI Sum of L1D PQ occupancy: 785117786
L1D PREFETCHES PUSHED FROM L2C: 0
L1I SPEC fills:          0  NON-SPEC fills:          0
L1I Test counter :          0
L1I Leapfrog:          0
L1I MSHR merge:          2
L1I TOTAL     ACCESS:   41614240  HIT:   41614215  MISS:         25  HIT %:    99.9999  MISS %: 6.00756e-05   MPKI: 0.000125
L1I LOAD      TOTAL       ACCESS:   41614240  HIT:   41614215  MISS:         25  HIT %:    99.9999  MISS %: 6.00756e-05   MPKI: 0.000125
L1I LOAD      NON_SPEC    ACCESS:   41614240  HIT:   41614215  MISS:         25  HIT %:    99.9999  MISS %: 6.00756e-05   MPKI: 0.000125
L1I PREFETCH  REQUESTED:          0  ISSUED:          0  USEFUL:          0  USELESS:          0
L1I USEFUL LOAD PREFETCHES:          0 PREFETCH ISSUED TO LOWER LEVEL:          0  ACCURACY: -nan
L1I TIMELY PREFETCHES:          0 LATE PREFETCHES: 0 DROPPED PREFETCHES: 0
L1I COMMIT LATE PREFETCHES: 0 MISSED OPPORTUNITY: 0 LATE IN PQ: 0 UNCOVERED: 0
L1I COMMIT LATE MSHR PREFETCHES: 0
L1I MPKI TOTAL: 0.000135 MSHR LATE: 0 PQ LATE: 0 COMMIT LATE: 0 MISSED OPPORTUNITY: 0 UNCOVERED: 0
L1I PREFETCHES SAME FILL-ORIGIN LEVEL: 0 DIFFERENT FILL-ORIGIN LEVEL: 0
L1I AVERAGE MISS LATENCY: 210 cycles
L1I AVERAGE MISS LATENCY LOAD: 210 cycles
L1I AVERAGE MISS LATENCY PREFETCH: -nan cycles
L1I AVERAGE MSHR OCCUPANCY: 3.12393e-07
L1I MSHR FULL: 0
L1I RQ	ACCESS:   62878370	FORWARD:          0	MERGED:   21264127	TO_CACHE:   41614243

BTB SPEC fills:          0  NON-SPEC fills:          0
BTB Test counter :          0
BTB Leapfrog:          0
BTB MSHR merge:          0
BTB TOTAL     ACCESS:   47939699  HIT:   47938637  MISS:       1062  HIT %:    99.9978  MISS %: 0.00221528   MPKI: 0.00531
BTB BRANCH_DIRECT_JUMP	ACCESS:     685292  HIT:     685256  MISS:         36
BTB BRANCH_INDIRECT	ACCESS:          0  HIT:          0  MISS:          0
BTB BRANCH_CONDITIONAL	ACCESS:   46577606  HIT:   46577528  MISS:         78
BTB BRANCH_DIRECT_CALL	ACCESS:     338400  HIT:     338384  MISS:         16
BTB BRANCH_INDIRECT_CALL	ACCESS:          0  HIT:          0  MISS:          0
BTB BRANCH_RETURN	ACCESS:     338401  HIT:     337469  MISS:        932
BTB BRANCH_OTHER ACCESS:          0  HIT:          0  MISS:          0

L2C SPEC fills:          0  NON-SPEC fills:     594407
L2C Test counter :    4591209
L2C Leapfrog:          0
L2C MSHR merge:          0
L2C TOTAL     ACCESS:   20576138  HIT:    5972626  MISS:   14603512  HIT %:     29.027  MISS %:     70.973   MPKI: 73.0176
L2C LOAD      TOTAL       ACCESS:    1256751  HIT:     208525  MISS:    1048226  HIT %:    16.5924  MISS %:    83.4076   MPKI: 5.24113
L2C LOAD      NON_SPEC    ACCESS:     618093  HIT:      23661  MISS:     594432  HIT %:    3.82806  MISS %:    96.1719   MPKI: 2.97216
L2C LOAD      SPEC        ACCESS:     638658  HIT:     184864  MISS:     453794  HIT %:    28.9457  MISS %:    71.0543   MPKI: 2.26897
L2C RFO       NON_SPEC    ACCESS:       4445  HIT:        155  MISS:       4290  HIT %:    3.48706  MISS %:    96.5129   MPKI: 0.02145
L2C PREFETCH  NON_SPEC    ACCESS:   13341763  HIT:     305261  MISS:   13036502  HIT %:    2.28801  MISS %:     97.712   MPKI: 65.1825
L2C WRITEBACK NON_SPEC    ACCESS:       7633  HIT:       7614  MISS:         19  HIT %:    99.7511  MISS %:   0.248919   MPKI: 9.5e-05
L2C CLEAN_EVICTION NON_SPEC    ACCESS:    4646650  HIT:    4194717  MISS:     451933  HIT %:     90.274  MISS %:      9.726   MPKI: 2.25967
L2C COMMIT LOAD NON_SPEC    ACCESS:       1248  HIT:       1035  MISS:        213  HIT %:    82.9327  MISS %:    17.0673   MPKI: 0.001065
L2C LOAD TRANSLATION NON_SPEC    ACCESS:    1317618  HIT:    1255289  MISS:      62329  HIT %:    95.2696  MISS %:    4.73043   MPKI: 0.311645
L2C TRANSLATION FROM L1D PREFETCHER NON_SPEC    ACCESS:         30  HIT:         30  MISS:          0  HIT %:        100  MISS %:          0   MPKI: 0
L2C PREFETCH  REQUESTED:          0  ISSUED:          0  USEFUL:      11416  USELESS:   13025240
L2C USEFUL LOAD PREFETCHES:      11416 PREFETCH ISSUED TO LOWER LEVEL:   13036502  ACCURACY: 0.0875695
L2C TIMELY PREFETCHES:      11416 LATE PREFETCHES: 0 DROPPED PREFETCHES: 0
L2C COMMIT LATE PREFETCHES: 0 MISSED OPPORTUNITY: 0 LATE IN PQ: 0 UNCOVERED: 0
L2C COMMIT LATE MSHR PREFETCHES: 0
L2C MPKI TOTAL: 5.24113 MSHR LATE: 0 PQ LATE: 0 COMMIT LATE: 0 MISSED OPPORTUNITY: 0 UNCOVERED: 0
L2C PREFETCHES SAME FILL-ORIGIN LEVEL: 11 DIFFERENT FILL-ORIGIN LEVEL: 0
L2C AVERAGE MISS LATENCY: 190.337 cycles
L2C AVERAGE MISS LATENCY LOAD: 185.332 cycles
L2C AVERAGE MISS LATENCY PREFETCH: 197.326 cycles
L2C AVERAGE MSHR OCCUPANCY: 0.439931
L2C MSHR FULL: 0
L2C RQ	ACCESS:    2580114	FORWARD:          0	MERGED:          0	TO_CACHE:    2580092
L2C WQ	ACCESS:    4655669	FORWARD:         22	MERGED:       1386	TO_CACHE:    4654283
L2C PQ	ACCESS:   13341764	FORWARD:          0	MERGED:          0	TO_CACHE:   13341764

L2C Instructions Evicting Data 25
L2C Translations Evicting Data 62118
L2C Data Evicting Data 13575241
L2C Instructions Evicting Instructions 0
L2C Translations Evicting Instructions 0
L2C Data Evicting Instructions 25
L2C Instructions Evicting Translations 0
L2C Translations Evicting Translations 211
L2C Data Evicting Translations 60146
L2C Dense regions hint from L2: 0
PSCL5 SPEC fills:          0  NON-SPEC fills:          0
PSCL5 Test counter :          0
PSCL5 Leapfrog:          0
PSCL5 MSHR merge:          0
PSCL5 TOTAL     ACCESS:          0  HIT:          0  MISS:          0  HIT %:       -nan  MISS %:       -nan   MPKI: 0
PSCL5 PREFETCH  REQUESTED:          0  ISSUED:          0  USEFUL:          0  USELESS:          0
PSCL5 USEFUL LOAD PREFETCHES:          0 PREFETCH ISSUED TO LOWER LEVEL:          0  ACCURACY: -nan
PSCL5 TIMELY PREFETCHES:          0 LATE PREFETCHES: 0 DROPPED PREFETCHES: 0
PSCL5 COMMIT LATE PREFETCHES: 0 MISSED OPPORTUNITY: 0 LATE IN PQ: 0 UNCOVERED: 0
PSCL5 COMMIT LATE MSHR PREFETCHES: 0
PSCL5 MPKI TOTAL: 0 MSHR LATE: 0 PQ LATE: 0 COMMIT LATE: 0 MISSED OPPORTUNITY: 0 UNCOVERED: 0
PSCL5 PREFETCHES SAME FILL-ORIGIN LEVEL: 0 DIFFERENT FILL-ORIGIN LEVEL: 0

PSCL4 SPEC fills:          0  NON-SPEC fills:          0
PSCL4 Test counter :          0
PSCL4 Leapfrog:          0
PSCL4 MSHR merge:          0
PSCL4 TOTAL     ACCESS:          0  HIT:          0  MISS:          0  HIT %:       -nan  MISS %:       -nan   MPKI: 0
PSCL4 PREFETCH  REQUESTED:          0  ISSUED:          0  USEFUL:          0  USELESS:          0
PSCL4 USEFUL LOAD PREFETCHES:          0 PREFETCH ISSUED TO LOWER LEVEL:          0  ACCURACY: -nan
PSCL4 TIMELY PREFETCHES:          0 LATE PREFETCHES: 0 DROPPED PREFETCHES: 0
PSCL4 COMMIT LATE PREFETCHES: 0 MISSED OPPORTUNITY: 0 LATE IN PQ: 0 UNCOVERED: 0
PSCL4 COMMIT LATE MSHR PREFETCHES: 0
PSCL4 MPKI TOTAL: 0 MSHR LATE: 0 PQ LATE: 0 COMMIT LATE: 0 MISSED OPPORTUNITY: 0 UNCOVERED: 0
PSCL4 PREFETCHES SAME FILL-ORIGIN LEVEL: 0 DIFFERENT FILL-ORIGIN LEVEL: 0

PSCL3 SPEC fills:          0  NON-SPEC fills:          0
PSCL3 Test counter :          0
PSCL3 Leapfrog:          0
PSCL3 MSHR merge:          0
PSCL3 TOTAL     ACCESS:          0  HIT:          0  MISS:          0  HIT %:       -nan  MISS %:       -nan   MPKI: 0
PSCL3 PREFETCH  REQUESTED:          0  ISSUED:          0  USEFUL:          0  USELESS:          0
PSCL3 USEFUL LOAD PREFETCHES:          0 PREFETCH ISSUED TO LOWER LEVEL:          0  ACCURACY: -nan
PSCL3 TIMELY PREFETCHES:          0 LATE PREFETCHES: 0 DROPPED PREFETCHES: 0
PSCL3 COMMIT LATE PREFETCHES: 0 MISSED OPPORTUNITY: 0 LATE IN PQ: 0 UNCOVERED: 0
PSCL3 COMMIT LATE MSHR PREFETCHES: 0
PSCL3 MPKI TOTAL: 0 MSHR LATE: 0 PQ LATE: 0 COMMIT LATE: 0 MISSED OPPORTUNITY: 0 UNCOVERED: 0
PSCL3 PREFETCHES SAME FILL-ORIGIN LEVEL: 0 DIFFERENT FILL-ORIGIN LEVEL: 0

PSCL2 SPEC fills:          0  NON-SPEC fills:          0
PSCL2 Test counter :          0
PSCL2 Leapfrog:          0
PSCL2 MSHR merge:          0
PSCL2 TOTAL     ACCESS:          0  HIT:          0  MISS:          0  HIT %:       -nan  MISS %:       -nan   MPKI: 0
PSCL2 PREFETCH  REQUESTED:          0  ISSUED:          0  USEFUL:          0  USELESS:          0
PSCL2 USEFUL LOAD PREFETCHES:          0 PREFETCH ISSUED TO LOWER LEVEL:          0  ACCURACY: -nan
PSCL2 TIMELY PREFETCHES:          0 LATE PREFETCHES: 0 DROPPED PREFETCHES: 0
PSCL2 COMMIT LATE PREFETCHES: 0 MISSED OPPORTUNITY: 0 LATE IN PQ: 0 UNCOVERED: 0
PSCL2 COMMIT LATE MSHR PREFETCHES: 0
PSCL2 MPKI TOTAL: 0 MSHR LATE: 0 PQ LATE: 0 COMMIT LATE: 0 MISSED OPPORTUNITY: 0 UNCOVERED: 0
PSCL2 PREFETCHES SAME FILL-ORIGIN LEVEL: 0 DIFFERENT FILL-ORIGIN LEVEL: 0

LLC SPEC fills:          0  NON-SPEC fills:     593769
LLC Test counter :    4560069
LLC Leapfrog:          0
LLC MSHR merge:          0
LLC TOTAL     ACCESS:   18750380  HIT:    4196997  MISS:   14553383  HIT %:    22.3835  MISS %:    77.6165   MPKI: 72.7669
LLC LOAD      TOTAL       ACCESS:    1048226  HIT:      23594  MISS:    1024632  HIT %:    2.25085  MISS %:    97.7491   MPKI: 5.12316
LLC LOAD      NON_SPEC    ACCESS:     594432  HIT:        638  MISS:     593794  HIT %:   0.107329  MISS %:    99.8927   MPKI: 2.96897
LLC LOAD      SPEC        ACCESS:     453794  HIT:      22956  MISS:     430838  HIT %:    5.05868  MISS %:    94.9413   MPKI: 2.15419
LLC RFO       NON_SPEC    ACCESS:       4290  HIT:          0  MISS:       4290  HIT %:          0  MISS %:        100   MPKI: 0.02145
LLC PREFETCH  NON_SPEC    ACCESS:   13036502  HIT:        401  MISS:   13036101  HIT %: 0.00307598  MISS %:    99.9969   MPKI: 65.1805
LLC WRITEBACK NON_SPEC    ACCESS:       7612  HIT:       7591  MISS:         21  HIT %:    99.7241  MISS %:    0.27588   MPKI: 0.000105
LLC CLEAN_EVICTION NON_SPEC    ACCESS:    4591208  HIT:    4161998  MISS:     429210  HIT %:    90.6515  MISS %:    9.34852   MPKI: 2.14605
LLC COMMIT LOAD NON_SPEC    ACCESS:        213  HIT:         49  MISS:        164  HIT %:    23.0047  MISS %:    76.9953   MPKI: 0.00082
LLC LOAD TRANSLATION NON_SPEC    ACCESS:      62329  HIT:       3364  MISS:      58965  HIT %:    5.39717  MISS %:    94.6028   MPKI: 0.294825
LLC PREFETCH  REQUESTED:          0  ISSUED:          0  USEFUL:        147  USELESS:   13036958
LLC USEFUL LOAD PREFETCHES:        147 PREFETCH ISSUED TO LOWER LEVEL:   13036101  ACCURACY: 0.00112764
LLC TIMELY PREFETCHES:        147 LATE PREFETCHES: 0 DROPPED PREFETCHES: 0
LLC COMMIT LATE PREFETCHES: 0 MISSED OPPORTUNITY: 0 LATE IN PQ: 0 UNCOVERED: 0
LLC COMMIT LATE MSHR PREFETCHES: 0
LLC MPKI TOTAL: 5.12316 MSHR LATE: 0 PQ LATE: 0 COMMIT LATE: 0 MISSED OPPORTUNITY: 0 UNCOVERED: 0
LLC PREFETCHES SAME FILL-ORIGIN LEVEL: 0 DIFFERENT FILL-ORIGIN LEVEL: 0
LLC AVERAGE MISS LATENCY: 162.101 cycles
LLC AVERAGE MISS LATENCY LOAD: 162.895 cycles
LLC AVERAGE MISS LATENCY PREFETCH: 167.331 cycles
LLC AVERAGE MSHR OCCUPANCY: 0.5266
LLC MSHR FULL: 0
LLC RQ	ACCESS:    1115058	FORWARD:          0	MERGED:          0	TO_CACHE:    1115058
LLC WQ	ACCESS:    4598821	FORWARD:          0	MERGED:          0	TO_CACHE:    4598821
LLC PQ	ACCESS:   13036502	FORWARD:          0	MERGED:          0	TO_CACHE:   13036502

LLC Dense regions hint to LLC: 0

RAW hits: 39252
Loads Generated: 71787579
Loads sent to L1D: 71748326
Stores Generated: 2952864
Stores sent to L1D: 2952864
Major fault: 0 Minor fault: 49083
Allocated PAGES: 49083
Total Load insts: 89673024
Total Non-spec loads: 16311773
Percentage of speculative loads: 81.8097

LeapFrogging counter: 12
Commit hits: 12673155 miss: 43208513
Commit hit %: 22.6786 miss %: 77.3214
Commits not translated: 0
Loads retired: 9350265
Stores retired: 2952864
Cache fills: 9350265
L1D response latency: 103.281 cycles
Load retirement latency: 114.57 cycles
OOO test counter: 0
Discarded buffer inserts: 12673155 hits: 62232 hit %: 0.491054
Speculative prefetch buffer size: 0
CPU 0 L1D PC-based stride prefetcher final stats
Degree: 3

DRAM Statistics
 CHANNEL 0
 RQ ROW_BUFFER_HIT:    1050514  ROW_BUFFER_MISS:   13073638
 DBUS_CONGESTED:      16308
 WQ ROW_BUFFER_HIT:    2933386  ROW_BUFFER_MISS:    1634240  FULL:          0

 AVG_CONGESTED_CYCLE: 4
 All warmup complete: 2
Channel 0 Bank busy for read cycles: 0
Channel 0 Bank busy for write cycles: 0
Channel 0
Rank 0
0banks busy for read cycles: 5814778
0banks busy for write cycles: 5623
1banks busy for read cycles: 296547112
1banks busy for write cycles: 6439852
2banks busy for read cycles: 250052557
2banks busy for write cycles: 7064543
3banks busy for read cycles: 396264420
3banks busy for write cycles: 8215070
4banks busy for read cycles: 6683299
4banks busy for write cycles: 10161113
5banks busy for read cycles: 197235
5banks busy for write cycles: 13952227
6banks busy for read cycles: 70932
6banks busy for write cycles: 23379768
7banks busy for read cycles: 7838
7banks busy for write cycles: 59421484
8banks busy for read cycles: 85
8banks busy for write cycles: 158828287

CPU 0 Branch Prediction Accuracy: 99.7034% MPKI: 1.05731 Average ROB Occupancy at Mispredict: 265.556
Branch types
NOT_BRANCH: 128713668 64.3568%
BRANCH_DIRECT_JUMP: 685292 0.342646%
BRANCH_INDIRECT: 0 0%
BRANCH_CONDITIONAL: 69924230 34.9621%
BRANCH_DIRECT_CALL: 338400 0.1692%
BRANCH_INDIRECT_CALL: 0 0%
BRANCH_RETURN: 338401 0.169201%
BRANCH_OTHER: 0 0%

DRAM PAGES: 1048576
Allocated PAGES: 49083
