
*** ChampSim Multicore Out-of-Order Simulator ***

Warmup Instructions: 50000000
Simulation Instructions: 200000000
Number of CPUs: 1
LLC sets: 2048
LLC ways: 16
L0D sets: 16
L0D ways: 2
ROB size: 352
LQ size: 128
SQ size: 72
Secure Berti: OFF
Berti: OFF
Berti Fill: OFF
On commit prefetching: ON
Hit-based filter: ON
Time-guarding: ON
Free-slotting: ON
Leap-frogging: ON
Train prefetcher on L0D bypass: OFF
No translation penalty for prefetchers: OFF
Prefetch to L0D only: OFF
Prefetch to L1D only: OFF
Clean evictions: ON
Commit loads: ON
Commit write: ON
Fill commit loads to L2C, LLC: ON
DRAM IO FREQUENCY: 6400
ROB SIZE: 352
Off-chip DRAM Size: 4096 MB Channels: 1 Width: 64-bit Data Rate: 6400 MT/s
CPU 0 runs /home/sumon/secure_berti/GhostMinion/../../traces/spec/603.bwaves_s-2609B.champsimtrace.xz
.xz
BTB has LRU replacement policy
ITLB has LRU replacement policy
DTLB has LRU replacement policy
STLB has LRU replacement policy
L1I has LRU replacement policy
L0D has LRU replacement policy
CPU 0 L1D IP-based stride prefetcher
L1D has LRU replacement policy
L2C has LRU replacement policy
LLC has LRU replacement policy
Heartbeat CPU 0 instructions: 10000002 cycles: 3564553 heartbeat IPC: 2.8054 cumulative IPC: 2.8054 (Simulation time: 0 hr 0 min 39 sec) 
Heartbeat CPU 0 instructions: 20000003 cycles: 7128863 heartbeat IPC: 2.80559 cumulative IPC: 2.8055 (Simulation time: 0 hr 1 min 18 sec) 
Heartbeat CPU 0 instructions: 30000001 cycles: 10694415 heartbeat IPC: 2.80461 cumulative IPC: 2.8052 (Simulation time: 0 hr 1 min 58 sec) 
Heartbeat CPU 0 instructions: 40000002 cycles: 14260051 heartbeat IPC: 2.80455 cumulative IPC: 2.80504 (Simulation time: 0 hr 2 min 43 sec) 
Heartbeat CPU 0 instructions: 50000003 cycles: 17824839 heartbeat IPC: 2.80522 cumulative IPC: 2.80507 (Simulation time: 0 hr 3 min 25 sec) 

Warmup complete CPU 0 instructions: 50000003 cycles: 17824839 (Simulation time: 0 hr 3 min 25 sec) 

Heartbeat CPU 0 instructions: 60000000 cycles: 27554367 heartbeat IPC: 1.0278 cumulative IPC: 1.0278 (Simulation time: 0 hr 4 min 10 sec) 
Heartbeat CPU 0 instructions: 70000000 cycles: 37278840 heartbeat IPC: 1.02833 cumulative IPC: 1.02807 (Simulation time: 0 hr 4 min 52 sec) 
Heartbeat CPU 0 instructions: 80000003 cycles: 47004929 heartbeat IPC: 1.02816 cumulative IPC: 1.0281 (Simulation time: 0 hr 5 min 33 sec) 
Heartbeat CPU 0 instructions: 90000003 cycles: 56730619 heartbeat IPC: 1.0282 cumulative IPC: 1.02812 (Simulation time: 0 hr 6 min 14 sec) 
Heartbeat CPU 0 instructions: 100000001 cycles: 66457441 heartbeat IPC: 1.02808 cumulative IPC: 1.02812 (Simulation time: 0 hr 6 min 54 sec) 
Heartbeat CPU 0 instructions: 110000000 cycles: 76173412 heartbeat IPC: 1.02923 cumulative IPC: 1.0283 (Simulation time: 0 hr 7 min 35 sec) 
Heartbeat CPU 0 instructions: 120000000 cycles: 85895944 heartbeat IPC: 1.02854 cumulative IPC: 1.02834 (Simulation time: 0 hr 8 min 15 sec) 
Heartbeat CPU 0 instructions: 130000001 cycles: 95622438 heartbeat IPC: 1.02812 cumulative IPC: 1.02831 (Simulation time: 0 hr 8 min 56 sec) 
Heartbeat CPU 0 instructions: 140000000 cycles: 105337170 heartbeat IPC: 1.02936 cumulative IPC: 1.02843 (Simulation time: 0 hr 9 min 36 sec) 
Heartbeat CPU 0 instructions: 150000003 cycles: 115061977 heartbeat IPC: 1.0283 cumulative IPC: 1.02841 (Simulation time: 0 hr 10 min 17 sec) 
Heartbeat CPU 0 instructions: 160000000 cycles: 124791815 heartbeat IPC: 1.02777 cumulative IPC: 1.02835 (Simulation time: 0 hr 10 min 58 sec) 
Heartbeat CPU 0 instructions: 170000000 cycles: 134516599 heartbeat IPC: 1.0283 cumulative IPC: 1.02835 (Simulation time: 0 hr 11 min 46 sec) 
Heartbeat CPU 0 instructions: 180000001 cycles: 144244371 heartbeat IPC: 1.02798 cumulative IPC: 1.02832 (Simulation time: 0 hr 12 min 41 sec) 
Heartbeat CPU 0 instructions: 190000000 cycles: 153968399 heartbeat IPC: 1.02838 cumulative IPC: 1.02833 (Simulation time: 0 hr 13 min 34 sec) 
Heartbeat CPU 0 instructions: 200000001 cycles: 163690572 heartbeat IPC: 1.02858 cumulative IPC: 1.02834 (Simulation time: 0 hr 14 min 26 sec) 
Heartbeat CPU 0 instructions: 210000003 cycles: 173417561 heartbeat IPC: 1.02807 cumulative IPC: 1.02833 (Simulation time: 0 hr 15 min 17 sec) 
Heartbeat CPU 0 instructions: 220000000 cycles: 183140527 heartbeat IPC: 1.02849 cumulative IPC: 1.02834 (Simulation time: 0 hr 16 min 7 sec) 
Heartbeat CPU 0 instructions: 230000002 cycles: 192863549 heartbeat IPC: 1.02849 cumulative IPC: 1.02834 (Simulation time: 0 hr 16 min 56 sec) 
Heartbeat CPU 0 instructions: 240000000 cycles: 202593701 heartbeat IPC: 1.02773 cumulative IPC: 1.02831 (Simulation time: 0 hr 17 min 42 sec) 
Heartbeat CPU 0 instructions: 250000002 cycles: 212315359 heartbeat IPC: 1.02863 cumulative IPC: 1.02833 (Simulation time: 0 hr 18 min 27 sec) 
Finished CPU 0 instructions: 200000003 cycles: 194490525 cumulative IPC: 1.02833 (Simulation time: 0 hr 18 min 27 sec) 
 Instruction ID: 250000052

ChampSim completed all CPUs

Region of Interest Statistics

CPU 0 cumulative IPC: 1.02833 instructions: 200000003 cycles: 194490525
ITLB SPEC fills:          0  NON-SPEC fills:          0
ITLB Test counter :          0
ITLB Leapfrog:          0
ITLB MSHR merge:          0
ITLB TOTAL     ACCESS:   25342038  HIT:   25342038  MISS:          0  HIT %:        100  MISS %:          0   MPKI: 0
ITLB LOAD TRANSLATION NON_SPEC    ACCESS:   25342038  HIT:   25342038  MISS:          0  HIT %:        100  MISS %:          0   MPKI: 0
ITLB PREFETCH  REQUESTED:          0  ISSUED:          0  USEFUL:          0  USELESS:          0
ITLB USEFUL LOAD PREFETCHES:          0 PREFETCH ISSUED TO LOWER LEVEL:          0  ACCURACY: -nan
ITLB TIMELY PREFETCHES:          0 LATE PREFETCHES: 0 DROPPED PREFETCHES: 0
ITLB COMMIT LATE PREFETCHES: 0 MISSED OPPORTUNITY: 0 LATE IN PQ: 0 UNCOVERED: 0
ITLB COMMIT LATE MSHR PREFETCHES: 0
ITLB MPKI TOTAL: 0 MSHR LATE: 0 PQ LATE: 0 COMMIT LATE: 0 MISSED OPPORTUNITY: 0 UNCOVERED: 0
ITLB PREFETCHES SAME FILL-ORIGIN LEVEL: 0 DIFFERENT FILL-ORIGIN LEVEL: 0
ITLB AVERAGE MISS LATENCY: -nan cycles
ITLB AVERAGE MISS LATENCY LOAD: -nan cycles
ITLB AVERAGE MISS LATENCY PREFETCH: -nan cycles
ITLB AVERAGE MSHR OCCUPANCY: 0
ITLB MSHR FULL: 0
ITLB RQ	ACCESS:   34385845	FORWARD:          0	MERGED:    9043807	TO_CACHE:   25342038

DTLB SPEC fills:          0  NON-SPEC fills:          0
DTLB Test counter :          0
DTLB Leapfrog:          0
DTLB MSHR merge:          0
DTLB TOTAL     ACCESS:   74921245  HIT:   74779446  MISS:     141799  HIT %:    99.8107  MISS %:   0.189264   MPKI: 0.708995
DTLB LOAD TRANSLATION NON_SPEC    ACCESS:   74921245  HIT:   74779446  MISS:     141799  HIT %:    99.8107  MISS %:   0.189264   MPKI: 0.708995
DTLB PREFETCH  REQUESTED:          0  ISSUED:          0  USEFUL:          0  USELESS:          0
DTLB USEFUL LOAD PREFETCHES:          0 PREFETCH ISSUED TO LOWER LEVEL:          0  ACCURACY: -nan
DTLB TIMELY PREFETCHES:          0 LATE PREFETCHES: 0 DROPPED PREFETCHES: 0
DTLB COMMIT LATE PREFETCHES: 0 MISSED OPPORTUNITY: 0 LATE IN PQ: 0 UNCOVERED: 0
DTLB COMMIT LATE MSHR PREFETCHES: 0
DTLB MPKI TOTAL: 0 MSHR LATE: 0 PQ LATE: 0 COMMIT LATE: 0 MISSED OPPORTUNITY: 0 UNCOVERED: 0
DTLB PREFETCHES SAME FILL-ORIGIN LEVEL: 0 DIFFERENT FILL-ORIGIN LEVEL: 0
DTLB AVERAGE MISS LATENCY: 282.487 cycles
DTLB AVERAGE MISS LATENCY LOAD: -nan cycles
DTLB AVERAGE MISS LATENCY PREFETCH: -nan cycles
DTLB AVERAGE MSHR OCCUPANCY: 0.0211581
DTLB MSHR FULL: 7.40484e-06
DTLB RQ	ACCESS:   87250130	FORWARD:          0	MERGED:   12299192	TO_CACHE:   74950938

STLB SPEC fills:          0  NON-SPEC fills:          0
STLB Test counter :          0
STLB Leapfrog:          0
STLB MSHR merge:          0
STLB TOTAL     ACCESS:    9901555  HIT:    9842173  MISS:      59382  HIT %:    99.4003  MISS %:   0.599724   MPKI: 0.29691
STLB LOAD TRANSLATION NON_SPEC    ACCESS:     141799  HIT:      82417  MISS:      59382  HIT %:    58.1224  MISS %:    41.8776   MPKI: 0.29691
STLB TRANSLATION FROM L1D PREFETCHER NON_SPEC    ACCESS:    9759756  HIT:    9759756  MISS:          0  HIT %:        100  MISS %:          0   MPKI: 0
STLB PREFETCH  REQUESTED:          0  ISSUED:          0  USEFUL:          0  USELESS:          0
STLB USEFUL LOAD PREFETCHES:          0 PREFETCH ISSUED TO LOWER LEVEL:          0  ACCURACY: -nan
STLB TIMELY PREFETCHES:          0 LATE PREFETCHES: 0 DROPPED PREFETCHES: 0
STLB COMMIT LATE PREFETCHES: 0 MISSED OPPORTUNITY: 0 LATE IN PQ: 0 UNCOVERED: 0
STLB COMMIT LATE MSHR PREFETCHES: 0
STLB MPKI TOTAL: 0 MSHR LATE: 0 PQ LATE: 0 COMMIT LATE: 0 MISSED OPPORTUNITY: 0 UNCOVERED: 0
STLB PREFETCHES SAME FILL-ORIGIN LEVEL: 0 DIFFERENT FILL-ORIGIN LEVEL: 0
STLB AVERAGE MISS LATENCY: 652.606 cycles
STLB AVERAGE MISS LATENCY LOAD: -nan cycles
STLB AVERAGE MISS LATENCY PREFETCH: -nan cycles
STLB AVERAGE MSHR OCCUPANCY: 0.0310369
STLB MSHR FULL: 0
STLB RQ	ACCESS:   27993319	FORWARD:          0	MERGED:   18091764	TO_CACHE:    9901555

STLB Hit, L1D data hit: 0
STLB Hit, L2C data hit: 0
STLB Hit, LLC data hit: 0
STLB Hit, LLC data miss: 0
STLB STLB hints to L2: 0
L0D SPEC fills:   50000872  NON-SPEC fills:          0
L0D TimeGuard Request with older TS:    1390007 Restricted eviction:   12143154 read:     152481
L0D Test counter :          0
L0D Leapfrog:          0
L0D MSHR merge:    2281673
L0D TOTAL     ACCESS:   73701658  HIT:    5772105  MISS:   67929553  HIT %:    7.83172  MISS %:    92.1683   MPKI: 339.648
L0D LOAD      TOTAL       ACCESS:   73701658  HIT:    5772105  MISS:   67929553  HIT %:    7.83172  MISS %:    92.1683   MPKI: 339.648
L0D LOAD      NON_SPEC    ACCESS:    6105788  HIT:     318320  MISS:    5787468  HIT %:    5.21341  MISS %:    94.7866   MPKI: 28.9373
L0D LOAD      SPEC        ACCESS:   67595870  HIT:    5453785  MISS:   62142085  HIT %:    8.06822  MISS %:    91.9318   MPKI: 310.71
L0D PREFETCH  REQUESTED:          0  ISSUED:          0  USEFUL:          0  USELESS:          0
L0D USEFUL LOAD PREFETCHES:          0 PREFETCH ISSUED TO LOWER LEVEL:          0  ACCURACY: -nan
L0D TIMELY PREFETCHES:          0 LATE PREFETCHES: 0 DROPPED PREFETCHES: 0
L0D COMMIT LATE PREFETCHES: 0 MISSED OPPORTUNITY: 0 LATE IN PQ: 0 UNCOVERED: 0
L0D COMMIT LATE MSHR PREFETCHES: 0
L0D MPKI TOTAL: 351.056 MSHR LATE: 0 PQ LATE: 0 COMMIT LATE: 0 MISSED OPPORTUNITY: 0 UNCOVERED: 0
L0D PREFETCHES SAME FILL-ORIGIN LEVEL: 0 DIFFERENT FILL-ORIGIN LEVEL: 0
L0D AVERAGE MISS LATENCY: 5.39875 cycles
L0D AVERAGE MISS LATENCY LOAD: 5.39875 cycles
L0D AVERAGE MISS LATENCY PREFETCH: -nan cycles
L0D AVERAGE MSHR OCCUPANCY: 1.58883
L0D MSHR FULL: 0.000756876
L0D RQ	ACCESS:   85546460	FORWARD:          0	MERGED:    9563145	TO_CACHE:   75983315
L0D WQ	ACCESS:   11266815	FORWARD:          0	MERGED:          0	TO_CACHE:   11266815

L1D SPEC fills:          0  NON-SPEC fills:       1747
L1D Test counter :      90647
L1D Leapfrog:          0
L1D MSHR merge:      10092
L1D TOTAL     ACCESS:  101404736  HIT:   97257528  MISS:    4147208  HIT %:    95.9102  MISS %:    4.08976   MPKI: 20.736
L1D LOAD      TOTAL       ACCESS:   67923778  HIT:   67774852  MISS:     148926  HIT %:    99.7807  MISS %:   0.219255   MPKI: 0.74463
L1D LOAD      NON_SPEC    ACCESS:    5787427  HIT:    5785680  MISS:       1747  HIT %:    99.9698  MISS %:  0.0301861   MPKI: 0.008735
L1D LOAD      SPEC        ACCESS:   62136351  HIT:   61989172  MISS:     147179  HIT %:    99.7631  MISS %:   0.236865   MPKI: 0.735895
L1D RFO       NON_SPEC    ACCESS:   11263853  HIT:   11261873  MISS:       1980  HIT %:    99.9824  MISS %:  0.0175784   MPKI: 0.0099
L1D PREFETCH  NON_SPEC    ACCESS:   22002144  HIT:   18135488  MISS:    3866656  HIT %:     82.426  MISS %:     17.574   MPKI: 19.3333
L1D COMMIT LOAD NON_SPEC    ACCESS:      85220  HIT:      73698  MISS:      11522  HIT %:    86.4797  MISS %:    13.5203   MPKI: 0.05761
L1D COMMIT WRITE NON_SPEC    ACCESS:     129741  HIT:      11617  MISS:     118124  HIT %:    8.95399  MISS %:     91.046   MPKI: 0.59062
L1D PREFETCH  REQUESTED:   29894271  ISSUED:   27916453  USEFUL:    3770514  USELESS:      96157
L1D USEFUL LOAD PREFETCHES:    3770514 PREFETCH ISSUED TO LOWER LEVEL:    6060695  ACCURACY: 62.2126
L1D TIMELY PREFETCHES:    3770514 LATE PREFETCHES: 9080 DROPPED PREFETCHES: 0
L1D COMMIT LATE PREFETCHES: 0 MISSED OPPORTUNITY: 0 LATE IN PQ: 0 UNCOVERED: 0
L1D COMMIT LATE MSHR PREFETCHES: 0
L1D MPKI TOTAL: 0.7735 MSHR LATE: 0.0454 PQ LATE: 0 COMMIT LATE: 0 MISSED OPPORTUNITY: 0 UNCOVERED: 0
L1D PREFETCHES SAME FILL-ORIGIN LEVEL: 3875740 DIFFERENT FILL-ORIGIN LEVEL: 2184955
L1D AVERAGE MISS LATENCY: 199.605 cycles
L1D AVERAGE MISS LATENCY LOAD: 131.226 cycles
L1D AVERAGE MISS LATENCY PREFETCH: 208.63 cycles
L1D AVERAGE MSHR OCCUPANCY: 4.20805
L1D MSHR FULL: 0.00162567
L1D RQ	ACCESS:   68017760	FORWARD:          0	MERGED:        129	TO_CACHE:   68017631
L1D WQ	ACCESS:   11396555	FORWARD:          0	MERGED:        196	TO_CACHE:   11396359
L1D PQ	ACCESS:   27916453	FORWARD:          0	MERGED:      64933	TO_CACHE:   27851520

L1D UNIQUE REGIONS ACCESSED: 0
L1D REGIONS CONFLICTS: 0
L1D Cross Page Prefetch Requests: 0
L1D Same Page Prefetch Requests: 34860095
L1D ROI Sum of L1D PQ occupancy: 424970187
L1D PREFETCHES PUSHED FROM L2C: 0
L1I SPEC fills:          0  NON-SPEC fills:          0
L1I Test counter :          0
L1I Leapfrog:          0
L1I MSHR merge:          0
L1I TOTAL     ACCESS:   34385844  HIT:   34385844  MISS:          0  HIT %:        100  MISS %:          0   MPKI: 0
L1I LOAD      TOTAL       ACCESS:   34385844  HIT:   34385844  MISS:          0  HIT %:        100  MISS %:          0   MPKI: 0
L1I LOAD      NON_SPEC    ACCESS:   34385844  HIT:   34385844  MISS:          0  HIT %:        100  MISS %:          0   MPKI: 0
L1I PREFETCH  REQUESTED:          0  ISSUED:          0  USEFUL:          0  USELESS:          0
L1I USEFUL LOAD PREFETCHES:          0 PREFETCH ISSUED TO LOWER LEVEL:          0  ACCURACY: -nan
L1I TIMELY PREFETCHES:          0 LATE PREFETCHES: 0 DROPPED PREFETCHES: 0
L1I COMMIT LATE PREFETCHES: 0 MISSED OPPORTUNITY: 0 LATE IN PQ: 0 UNCOVERED: 0
L1I COMMIT LATE MSHR PREFETCHES: 0
L1I MPKI TOTAL: 0 MSHR LATE: 0 PQ LATE: 0 COMMIT LATE: 0 MISSED OPPORTUNITY: 0 UNCOVERED: 0
L1I PREFETCHES SAME FILL-ORIGIN LEVEL: 0 DIFFERENT FILL-ORIGIN LEVEL: 0
L1I AVERAGE MISS LATENCY: -nan cycles
L1I AVERAGE MISS LATENCY LOAD: -nan cycles
L1I AVERAGE MISS LATENCY PREFETCH: -nan cycles
L1I AVERAGE MSHR OCCUPANCY: 0
L1I MSHR FULL: 0
L1I RQ	ACCESS:   45802949	FORWARD:          0	MERGED:   11417104	TO_CACHE:   34385845

BTB SPEC fills:          0  NON-SPEC fills:          0
BTB Test counter :          0
BTB Leapfrog:          0
BTB MSHR merge:          0
BTB TOTAL     ACCESS:    4834901  HIT:    4834896  MISS:          5  HIT %:    99.9999  MISS %: 0.000103415   MPKI: 2.5e-05
BTB BRANCH_DIRECT_JUMP	ACCESS:          0  HIT:          0  MISS:          0
BTB BRANCH_INDIRECT	ACCESS:          0  HIT:          0  MISS:          0
BTB BRANCH_CONDITIONAL	ACCESS:    4834901  HIT:    4834896  MISS:          5
BTB BRANCH_DIRECT_CALL	ACCESS:          0  HIT:          0  MISS:          0
BTB BRANCH_INDIRECT_CALL	ACCESS:          0  HIT:          0  MISS:          0
BTB BRANCH_RETURN	ACCESS:          0  HIT:          0  MISS:          0
BTB BRANCH_OTHER ACCESS:          0  HIT:          0  MISS:          0

L2C SPEC fills:          0  NON-SPEC fills:        880
L2C Test counter :      88995
L2C Leapfrog:          0
L2C MSHR merge:         63
L2C TOTAL     ACCESS:    5286525  HIT:    1375775  MISS:    3910750  HIT %:    26.0242  MISS %:    73.9758   MPKI: 19.5537
L2C LOAD      TOTAL       ACCESS:     144608  HIT:      41530  MISS:     103078  HIT %:     28.719  MISS %:     71.281   MPKI: 0.51539
L2C LOAD      NON_SPEC    ACCESS:       1695  HIT:        815  MISS:        880  HIT %:    48.0826  MISS %:    51.9174   MPKI: 0.0044
L2C LOAD      SPEC        ACCESS:     142913  HIT:      40715  MISS:     102198  HIT %:    28.4894  MISS %:    71.5106   MPKI: 0.51099
L2C RFO       NON_SPEC    ACCESS:       1980  HIT:        457  MISS:       1523  HIT %:    23.0808  MISS %:    76.9192   MPKI: 0.007615
L2C PREFETCH  NON_SPEC    ACCESS:    4648265  HIT:     928969  MISS:    3719296  HIT %:    19.9853  MISS %:    80.0147   MPKI: 18.5965
L2C WRITEBACK NON_SPEC    ACCESS:      97466  HIT:      97466  MISS:          0  HIT %:        100  MISS %:          0   MPKI: 0
L2C CLEAN_EVICTION NON_SPEC    ACCESS:      90647  HIT:      16335  MISS:      74312  HIT %:    18.0205  MISS %:    81.9795   MPKI: 0.37156
L2C COMMIT LOAD NON_SPEC    ACCESS:       6760  HIT:       1656  MISS:       5104  HIT %:     24.497  MISS %:     75.503   MPKI: 0.02552
L2C LOAD TRANSLATION NON_SPEC    ACCESS:     296799  HIT:     289362  MISS:       7437  HIT %:    97.4943  MISS %:    2.50574   MPKI: 0.037185
L2C PREFETCH  REQUESTED:          0  ISSUED:          0  USEFUL:      37048  USELESS:    3682190
L2C USEFUL LOAD PREFETCHES:      37048 PREFETCH ISSUED TO LOWER LEVEL:    3719704  ACCURACY: 0.995993
L2C TIMELY PREFETCHES:      37048 LATE PREFETCHES: 404 DROPPED PREFETCHES: 0
L2C COMMIT LATE PREFETCHES: 0 MISSED OPPORTUNITY: 0 LATE IN PQ: 0 UNCOVERED: 0
L2C COMMIT LATE MSHR PREFETCHES: 0
L2C MPKI TOTAL: 0.51539 MSHR LATE: 0.00202 PQ LATE: 0 COMMIT LATE: 0 MISSED OPPORTUNITY: 0 UNCOVERED: 0
L2C PREFETCHES SAME FILL-ORIGIN LEVEL: 1438035 DIFFERENT FILL-ORIGIN LEVEL: 0
L2C AVERAGE MISS LATENCY: 285.441 cycles
L2C AVERAGE MISS LATENCY LOAD: 168.572 cycles
L2C AVERAGE MISS LATENCY PREFETCH: 294.639 cycles
L2C AVERAGE MSHR OCCUPANCY: 3.60452
L2C MSHR FULL: 0
L2C RQ	ACCESS:     450147	FORWARD:          0	MERGED:          0	TO_CACHE:     450147
L2C WQ	ACCESS:     188113	FORWARD:          0	MERGED:          0	TO_CACHE:     188113
L2C PQ	ACCESS:    6060695	FORWARD:          0	MERGED:          0	TO_CACHE:    6060695

L2C Instructions Evicting Data 0
L2C Translations Evicting Data 7435
L2C Data Evicting Data 3719533
L2C Instructions Evicting Instructions 0
L2C Translations Evicting Instructions 0
L2C Data Evicting Instructions 0
L2C Instructions Evicting Translations 0
L2C Translations Evicting Translations 2
L2C Data Evicting Translations 7270
L2C Dense regions hint from L2: 0
PSCL5 SPEC fills:          0  NON-SPEC fills:          0
PSCL5 Test counter :          0
PSCL5 Leapfrog:          0
PSCL5 MSHR merge:          0
PSCL5 TOTAL     ACCESS:          0  HIT:          0  MISS:          0  HIT %:       -nan  MISS %:       -nan   MPKI: 0
PSCL5 PREFETCH  REQUESTED:          0  ISSUED:          0  USEFUL:          0  USELESS:          0
PSCL5 USEFUL LOAD PREFETCHES:          0 PREFETCH ISSUED TO LOWER LEVEL:          0  ACCURACY: -nan
PSCL5 TIMELY PREFETCHES:          0 LATE PREFETCHES: 0 DROPPED PREFETCHES: 0
PSCL5 COMMIT LATE PREFETCHES: 0 MISSED OPPORTUNITY: 0 LATE IN PQ: 0 UNCOVERED: 0
PSCL5 COMMIT LATE MSHR PREFETCHES: 0
PSCL5 MPKI TOTAL: 0 MSHR LATE: 0 PQ LATE: 0 COMMIT LATE: 0 MISSED OPPORTUNITY: 0 UNCOVERED: 0
PSCL5 PREFETCHES SAME FILL-ORIGIN LEVEL: 0 DIFFERENT FILL-ORIGIN LEVEL: 0

PSCL4 SPEC fills:          0  NON-SPEC fills:          0
PSCL4 Test counter :          0
PSCL4 Leapfrog:          0
PSCL4 MSHR merge:          0
PSCL4 TOTAL     ACCESS:          0  HIT:          0  MISS:          0  HIT %:       -nan  MISS %:       -nan   MPKI: 0
PSCL4 PREFETCH  REQUESTED:          0  ISSUED:          0  USEFUL:          0  USELESS:          0
PSCL4 USEFUL LOAD PREFETCHES:          0 PREFETCH ISSUED TO LOWER LEVEL:          0  ACCURACY: -nan
PSCL4 TIMELY PREFETCHES:          0 LATE PREFETCHES: 0 DROPPED PREFETCHES: 0
PSCL4 COMMIT LATE PREFETCHES: 0 MISSED OPPORTUNITY: 0 LATE IN PQ: 0 UNCOVERED: 0
PSCL4 COMMIT LATE MSHR PREFETCHES: 0
PSCL4 MPKI TOTAL: 0 MSHR LATE: 0 PQ LATE: 0 COMMIT LATE: 0 MISSED OPPORTUNITY: 0 UNCOVERED: 0
PSCL4 PREFETCHES SAME FILL-ORIGIN LEVEL: 0 DIFFERENT FILL-ORIGIN LEVEL: 0

PSCL3 SPEC fills:          0  NON-SPEC fills:          0
PSCL3 Test counter :          0
PSCL3 Leapfrog:          0
PSCL3 MSHR merge:          0
PSCL3 TOTAL     ACCESS:          0  HIT:          0  MISS:          0  HIT %:       -nan  MISS %:       -nan   MPKI: 0
PSCL3 PREFETCH  REQUESTED:          0  ISSUED:          0  USEFUL:          0  USELESS:          0
PSCL3 USEFUL LOAD PREFETCHES:          0 PREFETCH ISSUED TO LOWER LEVEL:          0  ACCURACY: -nan
PSCL3 TIMELY PREFETCHES:          0 LATE PREFETCHES: 0 DROPPED PREFETCHES: 0
PSCL3 COMMIT LATE PREFETCHES: 0 MISSED OPPORTUNITY: 0 LATE IN PQ: 0 UNCOVERED: 0
PSCL3 COMMIT LATE MSHR PREFETCHES: 0
PSCL3 MPKI TOTAL: 0 MSHR LATE: 0 PQ LATE: 0 COMMIT LATE: 0 MISSED OPPORTUNITY: 0 UNCOVERED: 0
PSCL3 PREFETCHES SAME FILL-ORIGIN LEVEL: 0 DIFFERENT FILL-ORIGIN LEVEL: 0

PSCL2 SPEC fills:          0  NON-SPEC fills:          0
PSCL2 Test counter :          0
PSCL2 Leapfrog:          0
PSCL2 MSHR merge:          0
PSCL2 TOTAL     ACCESS:          0  HIT:          0  MISS:          0  HIT %:       -nan  MISS %:       -nan   MPKI: 0
PSCL2 PREFETCH  REQUESTED:          0  ISSUED:          0  USEFUL:          0  USELESS:          0
PSCL2 USEFUL LOAD PREFETCHES:          0 PREFETCH ISSUED TO LOWER LEVEL:          0  ACCURACY: -nan
PSCL2 TIMELY PREFETCHES:          0 LATE PREFETCHES: 0 DROPPED PREFETCHES: 0
PSCL2 COMMIT LATE PREFETCHES: 0 MISSED OPPORTUNITY: 0 LATE IN PQ: 0 UNCOVERED: 0
PSCL2 COMMIT LATE MSHR PREFETCHES: 0
PSCL2 MPKI TOTAL: 0 MSHR LATE: 0 PQ LATE: 0 COMMIT LATE: 0 MISSED OPPORTUNITY: 0 UNCOVERED: 0
PSCL2 PREFETCHES SAME FILL-ORIGIN LEVEL: 0 DIFFERENT FILL-ORIGIN LEVEL: 0

LLC SPEC fills:          0  NON-SPEC fills:        880
LLC Test counter :      88348
LLC Leapfrog:          0
LLC MSHR merge:          0
LLC TOTAL     ACCESS:    4022916  HIT:     113193  MISS:    3909723  HIT %:    2.81371  MISS %:    97.1863   MPKI: 19.5486
LLC LOAD      TOTAL       ACCESS:     103015  HIT:        401  MISS:     102614  HIT %:   0.389264  MISS %:    99.6107   MPKI: 0.51307
LLC LOAD      NON_SPEC    ACCESS:        880  HIT:          0  MISS:        880  HIT %:          0  MISS %:        100   MPKI: 0.0044
LLC LOAD      SPEC        ACCESS:     102135  HIT:        401  MISS:     101734  HIT %:   0.392618  MISS %:    99.6074   MPKI: 0.50867
LLC RFO       NON_SPEC    ACCESS:       1523  HIT:          0  MISS:       1523  HIT %:          0  MISS %:        100   MPKI: 0.007615
LLC PREFETCH  NON_SPEC    ACCESS:    3719701  HIT:         11  MISS:    3719690  HIT %: 0.000295723  MISS %:    99.9997   MPKI: 18.5984
LLC WRITEBACK NON_SPEC    ACCESS:      97482  HIT:      97482  MISS:          0  HIT %:        100  MISS %:          0   MPKI: 0
LLC CLEAN_EVICTION NON_SPEC    ACCESS:      88995  HIT:      15280  MISS:      73715  HIT %:    17.1695  MISS %:    82.8305   MPKI: 0.368575
LLC COMMIT LOAD NON_SPEC    ACCESS:       4763  HIT:         19  MISS:       4744  HIT %:   0.398908  MISS %:    99.6011   MPKI: 0.02372
LLC LOAD TRANSLATION NON_SPEC    ACCESS:       7437  HIT:          0  MISS:       7437  HIT %:          0  MISS %:        100   MPKI: 0.037185
LLC PREFETCH  REQUESTED:          0  ISSUED:          0  USEFUL:         19  USELESS:    3719589
LLC USEFUL LOAD PREFETCHES:         19 PREFETCH ISSUED TO LOWER LEVEL:    3719693  ACCURACY: 0.000510795
LLC TIMELY PREFETCHES:         19 LATE PREFETCHES: 0 DROPPED PREFETCHES: 0
LLC COMMIT LATE PREFETCHES: 0 MISSED OPPORTUNITY: 0 LATE IN PQ: 0 UNCOVERED: 0
LLC COMMIT LATE MSHR PREFETCHES: 0
LLC MPKI TOTAL: 0.51307 MSHR LATE: 0 PQ LATE: 0 COMMIT LATE: 0 MISSED OPPORTUNITY: 0 UNCOVERED: 0
LLC PREFETCHES SAME FILL-ORIGIN LEVEL: 0 DIFFERENT FILL-ORIGIN LEVEL: 0
LLC AVERAGE MISS LATENCY: 254.951 cycles
LLC AVERAGE MISS LATENCY LOAD: 126.562 cycles
LLC AVERAGE MISS LATENCY PREFETCH: 263.783 cycles
LLC AVERAGE MSHR OCCUPANCY: 2.89866
LLC MSHR FULL: 0
LLC RQ	ACCESS:     116738	FORWARD:          0	MERGED:          0	TO_CACHE:     116738
LLC WQ	ACCESS:     186477	FORWARD:          0	MERGED:          0	TO_CACHE:     186477
LLC PQ	ACCESS:    3719704	FORWARD:          0	MERGED:          0	TO_CACHE:    3719704

LLC Dense regions hint to LLC: 0

RAW hits: 413731
Loads Generated: 85960192
Loads sent to L1D: 85546460
Stores Generated: 11266823
Stores sent to L1D: 11266815
Major fault: 0 Minor fault: 70872
Allocated PAGES: 70872
Total Load insts: 106257255
Total Non-spec loads: 6565131
Percentage of speculative loads: 93.8215

LeapFrogging counter: 29276
Commit hits: 48876834 miss: 30501668
Commit hit %: 61.5744 miss %: 38.4256
Commits not translated: 0
Loads retired: 148926
Stores retired: 11266815
Cache fills: 148926
L1D response latency: 131.226 cycles
Load retirement latency: 636.607 cycles
OOO test counter: 0
Discarded buffer inserts: 48876834 hits: 135 hit %: 0.000276204
Speculative prefetch buffer size: 0
CPU 0 L1D PC-based stride prefetcher final stats
Degree: 3

DRAM Statistics
 CHANNEL 0
 RQ ROW_BUFFER_HIT:    2877380  ROW_BUFFER_MISS:     958628
 DBUS_CONGESTED:       3912
 WQ ROW_BUFFER_HIT:      28130  ROW_BUFFER_MISS:     157700  FULL:          0

 AVG_CONGESTED_CYCLE: 4
 All warmup complete: 2
Channel 0 Bank busy for read cycles: 0
Channel 0 Bank busy for write cycles: 0
Channel 0
Rank 0
0banks busy for read cycles: 46258505
0banks busy for write cycles: 72438
1banks busy for read cycles: 47643522
1banks busy for write cycles: 9269984
2banks busy for read cycles: 31013015
2banks busy for write cycles: 3103736
3banks busy for read cycles: 38684870
3banks busy for write cycles: 2926503
4banks busy for read cycles: 9171728
4banks busy for write cycles: 829570
5banks busy for read cycles: 3438580
5banks busy for write cycles: 241245
6banks busy for read cycles: 1009349
6banks busy for write cycles: 187597
7banks busy for read cycles: 276561
7banks busy for write cycles: 169175
8banks busy for read cycles: 13744
8banks busy for write cycles: 180404

CPU 0 Branch Prediction Accuracy: 99.9706% MPKI: 0.00733 Average ROB Occupancy at Mispredict: 29.0723
Branch types
NOT_BRANCH: 195007396 97.5037%
BRANCH_DIRECT_JUMP: 0 0%
BRANCH_INDIRECT: 0 0%
BRANCH_CONDITIONAL: 4992275 2.49614%
BRANCH_DIRECT_CALL: 0 0%
BRANCH_INDIRECT_CALL: 0 0%
BRANCH_RETURN: 0 0%
BRANCH_OTHER: 0 0%

DRAM PAGES: 1048576
Allocated PAGES: 70872
