
*** ChampSim Multicore Out-of-Order Simulator ***

Warmup Instructions: 50000000
Simulation Instructions: 200000000
Number of CPUs: 1
LLC sets: 2048
LLC ways: 16
L0D sets: 16
L0D ways: 2
ROB size: 352
LQ size: 128
SQ size: 72
Secure Berti: OFF
Berti: OFF
Berti Fill: OFF
On commit prefetching: ON
Hit-based filter: ON
Time-guarding: ON
Free-slotting: ON
Leap-frogging: ON
Train prefetcher on L0D bypass: OFF
No translation penalty for prefetchers: OFF
Prefetch to L0D only: OFF
Prefetch to L1D only: OFF
Clean evictions: ON
Commit loads: ON
Commit write: ON
Fill commit loads to L2C, LLC: ON
DRAM IO FREQUENCY: 6400
ROB SIZE: 352
Off-chip DRAM Size: 4096 MB Channels: 1 Width: 64-bit Data Rate: 6400 MT/s
CPU 0 runs /home/sumon/secure_berti/GhostMinion/../../traces/spec/605.mcf_s-1536B.champsimtrace.xz
.xz
BTB has LRU replacement policy
ITLB has LRU replacement policy
DTLB has LRU replacement policy
STLB has LRU replacement policy
L1I has LRU replacement policy
L0D has LRU replacement policy
CPU 0 L1D IP-based stride prefetcher
L1D has LRU replacement policy
L2C has LRU replacement policy
LLC has LRU replacement policy
Heartbeat CPU 0 instructions: 10000003 cycles: 4492903 heartbeat IPC: 2.22573 cumulative IPC: 2.22573 (Simulation time: 0 hr 0 min 35 sec) 
Heartbeat CPU 0 instructions: 20000003 cycles: 8963269 heartbeat IPC: 2.23695 cumulative IPC: 2.23133 (Simulation time: 0 hr 1 min 10 sec) 
Heartbeat CPU 0 instructions: 30000001 cycles: 13472060 heartbeat IPC: 2.21789 cumulative IPC: 2.22683 (Simulation time: 0 hr 1 min 45 sec) 
Heartbeat CPU 0 instructions: 40000002 cycles: 17995617 heartbeat IPC: 2.21065 cumulative IPC: 2.22276 (Simulation time: 0 hr 2 min 21 sec) 
Heartbeat CPU 0 instructions: 50000003 cycles: 22542371 heartbeat IPC: 2.19937 cumulative IPC: 2.21805 (Simulation time: 0 hr 2 min 57 sec) 

Warmup complete CPU 0 instructions: 50000003 cycles: 22542371 (Simulation time: 0 hr 2 min 57 sec) 

Heartbeat CPU 0 instructions: 60000003 cycles: 72421061 heartbeat IPC: 0.200486 cumulative IPC: 0.200486 (Simulation time: 0 hr 4 min 5 sec) 
Heartbeat CPU 0 instructions: 70000003 cycles: 122451640 heartbeat IPC: 0.199878 cumulative IPC: 0.200182 (Simulation time: 0 hr 5 min 13 sec) 
Heartbeat CPU 0 instructions: 80000001 cycles: 172385456 heartbeat IPC: 0.200265 cumulative IPC: 0.200209 (Simulation time: 0 hr 6 min 21 sec) 
Heartbeat CPU 0 instructions: 90000000 cycles: 222658826 heartbeat IPC: 0.198912 cumulative IPC: 0.199884 (Simulation time: 0 hr 7 min 31 sec) 
Heartbeat CPU 0 instructions: 100000002 cycles: 272746199 heartbeat IPC: 0.199651 cumulative IPC: 0.199837 (Simulation time: 0 hr 8 min 40 sec) 
Heartbeat CPU 0 instructions: 110000000 cycles: 322806681 heartbeat IPC: 0.199758 cumulative IPC: 0.199824 (Simulation time: 0 hr 9 min 49 sec) 
Heartbeat CPU 0 instructions: 120000000 cycles: 373259802 heartbeat IPC: 0.198204 cumulative IPC: 0.199591 (Simulation time: 0 hr 10 min 58 sec) 
Heartbeat CPU 0 instructions: 130000003 cycles: 423722502 heartbeat IPC: 0.198166 cumulative IPC: 0.199412 (Simulation time: 0 hr 12 min 7 sec) 
Heartbeat CPU 0 instructions: 140000003 cycles: 474384894 heartbeat IPC: 0.197385 cumulative IPC: 0.199184 (Simulation time: 0 hr 13 min 15 sec) 
Heartbeat CPU 0 instructions: 150000001 cycles: 524681506 heartbeat IPC: 0.198821 cumulative IPC: 0.199148 (Simulation time: 0 hr 14 min 21 sec) 
Heartbeat CPU 0 instructions: 160000000 cycles: 574653340 heartbeat IPC: 0.200113 cumulative IPC: 0.199235 (Simulation time: 0 hr 15 min 26 sec) 
Heartbeat CPU 0 instructions: 170000002 cycles: 624478712 heartbeat IPC: 0.200701 cumulative IPC: 0.199357 (Simulation time: 0 hr 16 min 31 sec) 
Heartbeat CPU 0 instructions: 180000001 cycles: 673730958 heartbeat IPC: 0.203036 cumulative IPC: 0.199635 (Simulation time: 0 hr 17 min 35 sec) 
Heartbeat CPU 0 instructions: 190000000 cycles: 722712800 heartbeat IPC: 0.204157 cumulative IPC: 0.199951 (Simulation time: 0 hr 18 min 44 sec) 
Heartbeat CPU 0 instructions: 200000003 cycles: 771606559 heartbeat IPC: 0.204525 cumulative IPC: 0.20025 (Simulation time: 0 hr 20 min 0 sec) 
Heartbeat CPU 0 instructions: 210000000 cycles: 820167690 heartbeat IPC: 0.205926 cumulative IPC: 0.200595 (Simulation time: 0 hr 21 min 7 sec) 
Heartbeat CPU 0 instructions: 220000000 cycles: 868547020 heartbeat IPC: 0.2067 cumulative IPC: 0.200945 (Simulation time: 0 hr 22 min 9 sec) 
Heartbeat CPU 0 instructions: 230000000 cycles: 917091369 heartbeat IPC: 0.205997 cumulative IPC: 0.201219 (Simulation time: 0 hr 23 min 10 sec) 
Heartbeat CPU 0 instructions: 240000002 cycles: 965606045 heartbeat IPC: 0.206123 cumulative IPC: 0.201471 (Simulation time: 0 hr 24 min 11 sec) 
Heartbeat CPU 0 instructions: 250000001 cycles: 1014202709 heartbeat IPC: 0.205775 cumulative IPC: 0.201682 (Simulation time: 0 hr 25 min 10 sec) 
Finished CPU 0 instructions: 200000002 cycles: 991660339 cumulative IPC: 0.201682 (Simulation time: 0 hr 25 min 10 sec) 
 Instruction ID: 250000381

ChampSim completed all CPUs

Region of Interest Statistics

CPU 0 cumulative IPC: 0.201682 instructions: 200000002 cycles: 991660339
ITLB SPEC fills:          0  NON-SPEC fills:          0
ITLB Test counter :          0
ITLB Leapfrog:          0
ITLB MSHR merge:          0
ITLB TOTAL     ACCESS:   37614207  HIT:   37614207  MISS:          0  HIT %:        100  MISS %:          0   MPKI: 0
ITLB LOAD TRANSLATION NON_SPEC    ACCESS:   37614207  HIT:   37614207  MISS:          0  HIT %:        100  MISS %:          0   MPKI: 0
ITLB PREFETCH  REQUESTED:          0  ISSUED:          0  USEFUL:          0  USELESS:          0
ITLB USEFUL LOAD PREFETCHES:          0 PREFETCH ISSUED TO LOWER LEVEL:          0  ACCURACY: -nan
ITLB TIMELY PREFETCHES:          0 LATE PREFETCHES: 0 DROPPED PREFETCHES: 0
ITLB COMMIT LATE PREFETCHES: 0 MISSED OPPORTUNITY: 0 LATE IN PQ: 0 UNCOVERED: 0
ITLB COMMIT LATE MSHR PREFETCHES: 0
ITLB MPKI TOTAL: 0 MSHR LATE: 0 PQ LATE: 0 COMMIT LATE: 0 MISSED OPPORTUNITY: 0 UNCOVERED: 0
ITLB PREFETCHES SAME FILL-ORIGIN LEVEL: 0 DIFFERENT FILL-ORIGIN LEVEL: 0
ITLB AVERAGE MISS LATENCY: -nan cycles
ITLB AVERAGE MISS LATENCY LOAD: -nan cycles
ITLB AVERAGE MISS LATENCY PREFETCH: -nan cycles
ITLB AVERAGE MSHR OCCUPANCY: 0
ITLB MSHR FULL: 0
ITLB RQ	ACCESS:   39187131	FORWARD:          0	MERGED:    1572924	TO_CACHE:   37614207

DTLB SPEC fills:          0  NON-SPEC fills:          0
DTLB Test counter :          0
DTLB Leapfrog:          0
DTLB MSHR merge:          0
DTLB TOTAL     ACCESS:   33916157  HIT:   29041817  MISS:    4874340  HIT %:    85.6283  MISS %:    14.3717   MPKI: 24.3717
DTLB LOAD TRANSLATION NON_SPEC    ACCESS:   33916157  HIT:   29041817  MISS:    4874340  HIT %:    85.6283  MISS %:    14.3717   MPKI: 24.3717
DTLB PREFETCH  REQUESTED:          0  ISSUED:          0  USEFUL:          0  USELESS:          0
DTLB USEFUL LOAD PREFETCHES:          0 PREFETCH ISSUED TO LOWER LEVEL:          0  ACCURACY: -nan
DTLB TIMELY PREFETCHES:          0 LATE PREFETCHES: 0 DROPPED PREFETCHES: 0
DTLB COMMIT LATE PREFETCHES: 0 MISSED OPPORTUNITY: 0 LATE IN PQ: 0 UNCOVERED: 0
DTLB COMMIT LATE MSHR PREFETCHES: 0
DTLB MPKI TOTAL: 0 MSHR LATE: 0 PQ LATE: 0 COMMIT LATE: 0 MISSED OPPORTUNITY: 0 UNCOVERED: 0
DTLB PREFETCHES SAME FILL-ORIGIN LEVEL: 0 DIFFERENT FILL-ORIGIN LEVEL: 0
DTLB AVERAGE MISS LATENCY: 125.983 cycles
DTLB AVERAGE MISS LATENCY LOAD: -nan cycles
DTLB AVERAGE MISS LATENCY PREFETCH: -nan cycles
DTLB AVERAGE MSHR OCCUPANCY: 0.509442
DTLB MSHR FULL: 0
DTLB RQ	ACCESS:   38906185	FORWARD:          0	MERGED:    4931399	TO_CACHE:   33974786

STLB SPEC fills:          0  NON-SPEC fills:          0
STLB Test counter :          0
STLB Leapfrog:          0
STLB MSHR merge:          0
STLB TOTAL     ACCESS:    5251308  HIT:     607016  MISS:    4644292  HIT %:    11.5593  MISS %:    88.4407   MPKI: 23.2215
STLB LOAD TRANSLATION NON_SPEC    ACCESS:    4874340  HIT:     230495  MISS:    4643845  HIT %:    4.72874  MISS %:    95.2713   MPKI: 23.2192
STLB TRANSLATION FROM L1D PREFETCHER NON_SPEC    ACCESS:     376968  HIT:     376521  MISS:        447  HIT %:    99.8814  MISS %:   0.118578   MPKI: 0.002235
STLB PREFETCH  REQUESTED:          0  ISSUED:          0  USEFUL:          4  USELESS:        443
STLB USEFUL LOAD PREFETCHES:          4 PREFETCH ISSUED TO LOWER LEVEL:          0  ACCURACY: inf
STLB TIMELY PREFETCHES:          4 LATE PREFETCHES: 0 DROPPED PREFETCHES: 0
STLB COMMIT LATE PREFETCHES: 0 MISSED OPPORTUNITY: 0 LATE IN PQ: 0 UNCOVERED: 0
STLB COMMIT LATE MSHR PREFETCHES: 0
STLB MPKI TOTAL: 0 MSHR LATE: 0 PQ LATE: 0 COMMIT LATE: 0 MISSED OPPORTUNITY: 0 UNCOVERED: 0
STLB PREFETCHES SAME FILL-ORIGIN LEVEL: 0 DIFFERENT FILL-ORIGIN LEVEL: 0
STLB AVERAGE MISS LATENCY: 122.758 cycles
STLB AVERAGE MISS LATENCY LOAD: -nan cycles
STLB AVERAGE MISS LATENCY PREFETCH: -nan cycles
STLB AVERAGE MSHR OCCUPANCY: 0.499359
STLB MSHR FULL: 0
STLB RQ	ACCESS:    5945216	FORWARD:          0	MERGED:     693909	TO_CACHE:    5251307

STLB Hit, L1D data hit: 0
STLB Hit, L2C data hit: 0
STLB Hit, LLC data hit: 0
STLB Hit, LLC data miss: 0
STLB STLB hints to L2: 0
L0D SPEC fills:   19817883  NON-SPEC fills:          0
L0D TimeGuard Request with older TS:     657270 Restricted eviction:      10541 read:    2466769
L0D Test counter :          0
L0D Leapfrog:          0
L0D MSHR merge:     939559
L0D TOTAL     ACCESS:   29098215  HIT:    2134050  MISS:   26964165  HIT %:    7.33396  MISS %:     92.666   MPKI: 134.821
L0D LOAD      TOTAL       ACCESS:   29098215  HIT:    2134050  MISS:   26964165  HIT %:    7.33396  MISS %:     92.666   MPKI: 134.821
L0D LOAD      NON_SPEC    ACCESS:    7549361  HIT:     413620  MISS:    7135741  HIT %:    5.47887  MISS %:    94.5211   MPKI: 35.6787
L0D LOAD      SPEC        ACCESS:   21548854  HIT:    1720430  MISS:   19828424  HIT %:    7.98386  MISS %:    92.0161   MPKI: 99.1421
L0D PREFETCH  REQUESTED:          0  ISSUED:          0  USEFUL:          0  USELESS:          0
L0D USEFUL LOAD PREFETCHES:          0 PREFETCH ISSUED TO LOWER LEVEL:          0  ACCURACY: -nan
L0D TIMELY PREFETCHES:          0 LATE PREFETCHES: 0 DROPPED PREFETCHES: 0
L0D COMMIT LATE PREFETCHES: 0 MISSED OPPORTUNITY: 0 LATE IN PQ: 0 UNCOVERED: 0
L0D COMMIT LATE MSHR PREFETCHES: 0
L0D MPKI TOTAL: 139.519 MSHR LATE: 0 PQ LATE: 0 COMMIT LATE: 0 MISSED OPPORTUNITY: 0 UNCOVERED: 0
L0D PREFETCHES SAME FILL-ORIGIN LEVEL: 0 DIFFERENT FILL-ORIGIN LEVEL: 0
L0D AVERAGE MISS LATENCY: 44.0043 cycles
L0D AVERAGE MISS LATENCY LOAD: 44.0043 cycles
L0D AVERAGE MISS LATENCY PREFETCH: -nan cycles
L0D AVERAGE MSHR OCCUPANCY: 0.91764
L0D MSHR FULL: 0
L0D RQ	ACCESS:   49176702	FORWARD:          0	MERGED:   19138931	TO_CACHE:   30037771
L0D WQ	ACCESS:    8868414	FORWARD:          0	MERGED:          0	TO_CACHE:    8868414

L1D SPEC fills:          0  NON-SPEC fills:    3251178
L1D Test counter :    6178465
L1D Leapfrog:          0
L1D MSHR merge:       3563
L1D TOTAL     ACCESS:   51669734  HIT:   32665105  MISS:   19004629  HIT %:     63.219  MISS %:     36.781   MPKI: 95.0231
L1D LOAD      TOTAL       ACCESS:   26963308  HIT:   16615593  MISS:   10347715  HIT %:     61.623  MISS %:     38.377   MPKI: 51.7386
L1D LOAD      NON_SPEC    ACCESS:    7135682  HIT:    3884504  MISS:    3251178  HIT %:    54.4377  MISS %:    45.5623   MPKI: 16.2559
L1D LOAD      SPEC        ACCESS:   19827626  HIT:   12731089  MISS:    7096537  HIT %:    64.2088  MISS %:    35.7912   MPKI: 35.4827
L1D RFO       NON_SPEC    ACCESS:    8867376  HIT:    8313029  MISS:     554347  HIT %:    93.7485  MISS %:    6.25153   MPKI: 2.77173
L1D PREFETCH  NON_SPEC    ACCESS:    1064191  HIT:      44478  MISS:    1019713  HIT %:    4.17951  MISS %:    95.8205   MPKI: 5.09856
L1D COMMIT LOAD NON_SPEC    ACCESS:    7680783  HIT:    7672734  MISS:       8049  HIT %:    99.8952  MISS %:   0.104794   MPKI: 0.040245
L1D COMMIT WRITE NON_SPEC    ACCESS:    7094076  HIT:      19271  MISS:    7074805  HIT %:   0.271649  MISS %:    99.7284   MPKI: 35.374
L1D PREFETCH  REQUESTED:    1071357  ISSUED:    1071357  USEFUL:     207712  USELESS:     812004
L1D USEFUL LOAD PREFETCHES:     207712 PREFETCH ISSUED TO LOWER LEVEL:    1022432  ACCURACY: 20.3155
L1D TIMELY PREFETCHES:     207712 LATE PREFETCHES: 2719 DROPPED PREFETCHES: 0
L1D COMMIT LATE PREFETCHES: 0 MISSED OPPORTUNITY: 0 LATE IN PQ: 0 UNCOVERED: 0
L1D COMMIT LATE MSHR PREFETCHES: 0
L1D MPKI TOTAL: 51.7429 MSHR LATE: 0.013595 PQ LATE: 0 COMMIT LATE: 0 MISSED OPPORTUNITY: 0 UNCOVERED: 0
L1D PREFETCHES SAME FILL-ORIGIN LEVEL: 1022432 DIFFERENT FILL-ORIGIN LEVEL: 0
L1D AVERAGE MISS LATENCY: 57.3317 cycles
L1D AVERAGE MISS LATENCY LOAD: 101.27 cycles
L1D AVERAGE MISS LATENCY PREFETCH: 25.7411 cycles
L1D AVERAGE MSHR OCCUPANCY: 0.761061
L1D MSHR FULL: 0
L1D RQ	ACCESS:   37598398	FORWARD:          0	MERGED:    2952718	TO_CACHE:   34645680
L1D WQ	ACCESS:   15962489	FORWARD:          0	MERGED:          0	TO_CACHE:   15962489
L1D PQ	ACCESS:    1071357	FORWARD:          0	MERGED:        480	TO_CACHE:    1070877

L1D UNIQUE REGIONS ACCESSED: 0
L1D REGIONS CONFLICTS: 0
L1D Cross Page Prefetch Requests: 0
L1D Same Page Prefetch Requests: 1203569
L1D ROI Sum of L1D PQ occupancy: 15480543
L1D PREFETCHES PUSHED FROM L2C: 0
L1I SPEC fills:          0  NON-SPEC fills:          0
L1I Test counter :          0
L1I Leapfrog:          0
L1I MSHR merge:          0
L1I TOTAL     ACCESS:   39187129  HIT:   39187129  MISS:          0  HIT %:        100  MISS %:          0   MPKI: 0
L1I LOAD      TOTAL       ACCESS:   39187129  HIT:   39187129  MISS:          0  HIT %:        100  MISS %:          0   MPKI: 0
L1I LOAD      NON_SPEC    ACCESS:   39187129  HIT:   39187129  MISS:          0  HIT %:        100  MISS %:          0   MPKI: 0
L1I PREFETCH  REQUESTED:          0  ISSUED:          0  USEFUL:          0  USELESS:          0
L1I USEFUL LOAD PREFETCHES:          0 PREFETCH ISSUED TO LOWER LEVEL:          0  ACCURACY: -nan
L1I TIMELY PREFETCHES:          0 LATE PREFETCHES: 0 DROPPED PREFETCHES: 0
L1I COMMIT LATE PREFETCHES: 0 MISSED OPPORTUNITY: 0 LATE IN PQ: 0 UNCOVERED: 0
L1I COMMIT LATE MSHR PREFETCHES: 0
L1I MPKI TOTAL: 0 MSHR LATE: 0 PQ LATE: 0 COMMIT LATE: 0 MISSED OPPORTUNITY: 0 UNCOVERED: 0
L1I PREFETCHES SAME FILL-ORIGIN LEVEL: 0 DIFFERENT FILL-ORIGIN LEVEL: 0
L1I AVERAGE MISS LATENCY: -nan cycles
L1I AVERAGE MISS LATENCY LOAD: -nan cycles
L1I AVERAGE MISS LATENCY PREFETCH: -nan cycles
L1I AVERAGE MSHR OCCUPANCY: 0
L1I MSHR FULL: 0
L1I RQ	ACCESS:   60374152	FORWARD:          0	MERGED:   21187021	TO_CACHE:   39187131

BTB SPEC fills:          0  NON-SPEC fills:          0
BTB Test counter :          0
BTB Leapfrog:          0
BTB MSHR merge:          0
BTB TOTAL     ACCESS:   26649158  HIT:   26649150  MISS:          8  HIT %:        100  MISS %: 3.00197e-05   MPKI: 4e-05
BTB BRANCH_DIRECT_JUMP	ACCESS:    4549688  HIT:    4549686  MISS:          2
BTB BRANCH_INDIRECT	ACCESS:          0  HIT:          0  MISS:          0
BTB BRANCH_CONDITIONAL	ACCESS:   13231060  HIT:   13231056  MISS:          4
BTB BRANCH_DIRECT_CALL	ACCESS:    4434205  HIT:    4434204  MISS:          1
BTB BRANCH_INDIRECT_CALL	ACCESS:          0  HIT:          0  MISS:          0
BTB BRANCH_RETURN	ACCESS:    4434205  HIT:    4434204  MISS:          1
BTB BRANCH_OTHER ACCESS:          0  HIT:          0  MISS:          0

L2C SPEC fills:          0  NON-SPEC fills:    1074682
L2C Test counter :    5668764
L2C Leapfrog:          0
L2C MSHR merge:          0
L2C TOTAL     ACCESS:   42047291  HIT:   26111048  MISS:   15936243  HIT %:    62.0992  MISS %:    37.9008   MPKI: 79.6812
L2C LOAD      TOTAL       ACCESS:   10343414  HIT:    3737150  MISS:    6606264  HIT %:    36.1307  MISS %:    63.8693   MPKI: 33.0313
L2C LOAD      NON_SPEC    ACCESS:    3249702  HIT:    2175020  MISS:    1074682  HIT %:    66.9298  MISS %:    33.0702   MPKI: 5.37341
L2C LOAD      SPEC        ACCESS:    7093712  HIT:    1562130  MISS:    5531582  HIT %:    22.0213  MISS %:    77.9787   MPKI: 27.6579
L2C RFO       NON_SPEC    ACCESS:     554347  HIT:     330709  MISS:     223638  HIT %:    59.6574  MISS %:    40.3426   MPKI: 1.11819
L2C PREFETCH  NON_SPEC    ACCESS:    1022432  HIT:     821378  MISS:     201054  HIT %:    80.3357  MISS %:    19.6643   MPKI: 1.00527
L2C WRITEBACK NON_SPEC    ACCESS:     719142  HIT:     719142  MISS:          0  HIT %:        100  MISS %:          0   MPKI: 0
L2C CLEAN_EVICTION NON_SPEC    ACCESS:    6178465  HIT:     547736  MISS:    5630729  HIT %:    8.86524  MISS %:    91.1348   MPKI: 28.1536
L2C COMMIT LOAD NON_SPEC    ACCESS:       8036  HIT:       5840  MISS:       2196  HIT %:     72.673  MISS %:     27.327   MPKI: 0.01098
L2C LOAD TRANSLATION NON_SPEC    ACCESS:   23219220  HIT:   19947392  MISS:    3271828  HIT %:     85.909  MISS %:     14.091   MPKI: 16.3591
L2C TRANSLATION FROM L1D PREFETCHER NON_SPEC    ACCESS:       2235  HIT:       1701  MISS:        534  HIT %:    76.1074  MISS %:    23.8926   MPKI: 0.00267
L2C PREFETCH  REQUESTED:          0  ISSUED:          0  USEFUL:       3056  USELESS:     198172
L2C USEFUL LOAD PREFETCHES:       3056 PREFETCH ISSUED TO LOWER LEVEL:     201054  ACCURACY: 1.51999
L2C TIMELY PREFETCHES:       3056 LATE PREFETCHES: 0 DROPPED PREFETCHES: 0
L2C COMMIT LATE PREFETCHES: 0 MISSED OPPORTUNITY: 0 LATE IN PQ: 0 UNCOVERED: 0
L2C COMMIT LATE MSHR PREFETCHES: 0
L2C MPKI TOTAL: 33.0313 MSHR LATE: 0 PQ LATE: 0 COMMIT LATE: 0 MISSED OPPORTUNITY: 0 UNCOVERED: 0
L2C PREFETCHES SAME FILL-ORIGIN LEVEL: 0 DIFFERENT FILL-ORIGIN LEVEL: 0
L2C AVERAGE MISS LATENCY: 65.3061 cycles
L2C AVERAGE MISS LATENCY LOAD: 139.173 cycles
L2C AVERAGE MISS LATENCY PREFETCH: 52.1228 cycles
L2C AVERAGE MSHR OCCUPANCY: 0.678656
L2C MSHR FULL: 0
L2C RQ	ACCESS:   34128847	FORWARD:          0	MERGED:          0	TO_CACHE:   34127252
L2C WQ	ACCESS:    6897607	FORWARD:       1595	MERGED:          0	TO_CACHE:    6897607
L2C PQ	ACCESS:    1022432	FORWARD:          0	MERGED:          0	TO_CACHE:    1022432

L2C Instructions Evicting Data 0
L2C Translations Evicting Data 1810674
L2C Data Evicting Data 1011466
L2C Instructions Evicting Instructions 0
L2C Translations Evicting Instructions 0
L2C Data Evicting Instructions 0
L2C Instructions Evicting Translations 0
L2C Translations Evicting Translations 1461688
L2C Data Evicting Translations 490104
L2C Dense regions hint from L2: 0
PSCL5 SPEC fills:          0  NON-SPEC fills:          0
PSCL5 Test counter :          0
PSCL5 Leapfrog:          0
PSCL5 MSHR merge:          0
PSCL5 TOTAL     ACCESS:          0  HIT:          0  MISS:          0  HIT %:       -nan  MISS %:       -nan   MPKI: 0
PSCL5 PREFETCH  REQUESTED:          0  ISSUED:          0  USEFUL:          0  USELESS:          0
PSCL5 USEFUL LOAD PREFETCHES:          0 PREFETCH ISSUED TO LOWER LEVEL:          0  ACCURACY: -nan
PSCL5 TIMELY PREFETCHES:          0 LATE PREFETCHES: 0 DROPPED PREFETCHES: 0
PSCL5 COMMIT LATE PREFETCHES: 0 MISSED OPPORTUNITY: 0 LATE IN PQ: 0 UNCOVERED: 0
PSCL5 COMMIT LATE MSHR PREFETCHES: 0
PSCL5 MPKI TOTAL: 0 MSHR LATE: 0 PQ LATE: 0 COMMIT LATE: 0 MISSED OPPORTUNITY: 0 UNCOVERED: 0
PSCL5 PREFETCHES SAME FILL-ORIGIN LEVEL: 0 DIFFERENT FILL-ORIGIN LEVEL: 0

PSCL4 SPEC fills:          0  NON-SPEC fills:          0
PSCL4 Test counter :          0
PSCL4 Leapfrog:          0
PSCL4 MSHR merge:          0
PSCL4 TOTAL     ACCESS:          0  HIT:          0  MISS:          0  HIT %:       -nan  MISS %:       -nan   MPKI: 0
PSCL4 PREFETCH  REQUESTED:          0  ISSUED:          0  USEFUL:          0  USELESS:          0
PSCL4 USEFUL LOAD PREFETCHES:          0 PREFETCH ISSUED TO LOWER LEVEL:          0  ACCURACY: -nan
PSCL4 TIMELY PREFETCHES:          0 LATE PREFETCHES: 0 DROPPED PREFETCHES: 0
PSCL4 COMMIT LATE PREFETCHES: 0 MISSED OPPORTUNITY: 0 LATE IN PQ: 0 UNCOVERED: 0
PSCL4 COMMIT LATE MSHR PREFETCHES: 0
PSCL4 MPKI TOTAL: 0 MSHR LATE: 0 PQ LATE: 0 COMMIT LATE: 0 MISSED OPPORTUNITY: 0 UNCOVERED: 0
PSCL4 PREFETCHES SAME FILL-ORIGIN LEVEL: 0 DIFFERENT FILL-ORIGIN LEVEL: 0

PSCL3 SPEC fills:          0  NON-SPEC fills:          0
PSCL3 Test counter :          0
PSCL3 Leapfrog:          0
PSCL3 MSHR merge:          0
PSCL3 TOTAL     ACCESS:          0  HIT:          0  MISS:          0  HIT %:       -nan  MISS %:       -nan   MPKI: 0
PSCL3 PREFETCH  REQUESTED:          0  ISSUED:          0  USEFUL:          0  USELESS:          0
PSCL3 USEFUL LOAD PREFETCHES:          0 PREFETCH ISSUED TO LOWER LEVEL:          0  ACCURACY: -nan
PSCL3 TIMELY PREFETCHES:          0 LATE PREFETCHES: 0 DROPPED PREFETCHES: 0
PSCL3 COMMIT LATE PREFETCHES: 0 MISSED OPPORTUNITY: 0 LATE IN PQ: 0 UNCOVERED: 0
PSCL3 COMMIT LATE MSHR PREFETCHES: 0
PSCL3 MPKI TOTAL: 0 MSHR LATE: 0 PQ LATE: 0 COMMIT LATE: 0 MISSED OPPORTUNITY: 0 UNCOVERED: 0
PSCL3 PREFETCHES SAME FILL-ORIGIN LEVEL: 0 DIFFERENT FILL-ORIGIN LEVEL: 0

PSCL2 SPEC fills:          0  NON-SPEC fills:          0
PSCL2 Test counter :          0
PSCL2 Leapfrog:          0
PSCL2 MSHR merge:          0
PSCL2 TOTAL     ACCESS:          0  HIT:          0  MISS:          0  HIT %:       -nan  MISS %:       -nan   MPKI: 0
PSCL2 PREFETCH  REQUESTED:          0  ISSUED:          0  USEFUL:          0  USELESS:          0
PSCL2 USEFUL LOAD PREFETCHES:          0 PREFETCH ISSUED TO LOWER LEVEL:          0  ACCURACY: -nan
PSCL2 TIMELY PREFETCHES:          0 LATE PREFETCHES: 0 DROPPED PREFETCHES: 0
PSCL2 COMMIT LATE PREFETCHES: 0 MISSED OPPORTUNITY: 0 LATE IN PQ: 0 UNCOVERED: 0
PSCL2 COMMIT LATE MSHR PREFETCHES: 0
PSCL2 MPKI TOTAL: 0 MSHR LATE: 0 PQ LATE: 0 COMMIT LATE: 0 MISSED OPPORTUNITY: 0 UNCOVERED: 0
PSCL2 PREFETCHES SAME FILL-ORIGIN LEVEL: 0 DIFFERENT FILL-ORIGIN LEVEL: 0

LLC SPEC fills:          0  NON-SPEC fills:     339174
LLC Test counter :    4804344
LLC Leapfrog:          0
LLC MSHR merge:          0
LLC TOTAL     ACCESS:   16377669  HIT:    6545044  MISS:    9832625  HIT %:    39.9632  MISS %:    60.0368   MPKI: 49.1631
LLC LOAD      TOTAL       ACCESS:    6606205  HIT:    1555107  MISS:    5051098  HIT %:    23.5401  MISS %:    76.4599   MPKI: 25.2555
LLC LOAD      NON_SPEC    ACCESS:    1074630  HIT:     735456  MISS:     339174  HIT %:    68.4381  MISS %:    31.5619   MPKI: 1.69587
LLC LOAD      SPEC        ACCESS:    5531575  HIT:     819651  MISS:    4711924  HIT %:    14.8177  MISS %:    85.1823   MPKI: 23.5596
LLC RFO       NON_SPEC    ACCESS:     223632  HIT:     223630  MISS:          2  HIT %:    99.9991  MISS %: 0.000894326   MPKI: 1e-05
LLC PREFETCH  NON_SPEC    ACCESS:     201053  HIT:     177503  MISS:      23550  HIT %:    88.2867  MISS %:    11.7133   MPKI: 0.11775
LLC WRITEBACK NON_SPEC    ACCESS:     403456  HIT:     403456  MISS:          0  HIT %:        100  MISS %:          0   MPKI: 0
LLC CLEAN_EVICTION NON_SPEC    ACCESS:    5668765  HIT:     943840  MISS:    4724925  HIT %:    16.6498  MISS %:    83.3502   MPKI: 23.6246
LLC COMMIT LOAD NON_SPEC    ACCESS:       2196  HIT:       1156  MISS:       1040  HIT %:    52.6412  MISS %:    47.3588   MPKI: 0.0052
LLC LOAD TRANSLATION NON_SPEC    ACCESS:    3271828  HIT:    3239831  MISS:      31997  HIT %:     99.022  MISS %:   0.977955   MPKI: 0.159985
LLC TRANSLATION FROM L1D PREFETCHER NON_SPEC    ACCESS:        534  HIT:        521  MISS:         13  HIT %:    97.5655  MISS %:    2.43446   MPKI: 6.5e-05
LLC PREFETCH  REQUESTED:          0  ISSUED:          0  USEFUL:        642  USELESS:      22515
LLC USEFUL LOAD PREFETCHES:        642 PREFETCH ISSUED TO LOWER LEVEL:      23550  ACCURACY: 2.72611
LLC TIMELY PREFETCHES:        642 LATE PREFETCHES: 0 DROPPED PREFETCHES: 0
LLC COMMIT LATE PREFETCHES: 0 MISSED OPPORTUNITY: 0 LATE IN PQ: 0 UNCOVERED: 0
LLC COMMIT LATE MSHR PREFETCHES: 0
LLC MPKI TOTAL: 25.2555 MSHR LATE: 0 PQ LATE: 0 COMMIT LATE: 0 MISSED OPPORTUNITY: 0 UNCOVERED: 0
LLC PREFETCHES SAME FILL-ORIGIN LEVEL: 0 DIFFERENT FILL-ORIGIN LEVEL: 0
LLC AVERAGE MISS LATENCY: 79.3731 cycles
LLC AVERAGE MISS LATENCY LOAD: 152.474 cycles
LLC AVERAGE MISS LATENCY PREFETCH: 187.408 cycles
LLC AVERAGE MSHR OCCUPANCY: 0.679087
LLC MSHR FULL: 0
LLC RQ	ACCESS:   10104460	FORWARD:          0	MERGED:          0	TO_CACHE:   10104395
LLC WQ	ACCESS:    6072220	FORWARD:         66	MERGED:          0	TO_CACHE:    6072220
LLC PQ	ACCESS:     201054	FORWARD:          0	MERGED:          0	TO_CACHE:     201053

LLC Dense regions hint to LLC: 0

RAW hits: 4032017
Loads Generated: 53208719
Loads sent to L1D: 49176702
Stores Generated: 8868414
Stores sent to L1D: 8868414
Major fault: 0 Minor fault: 101164
Allocated PAGES: 101164
Total Load insts: 61417124
Total Non-spec loads: 9022390
Percentage of speculative loads: 85.3096

LeapFrogging counter: 0
Commit hits: 19422088 miss: 22102900
Commit hit %: 46.772 miss %: 53.228
Commits not translated: 0
Loads retired: 10347715
Stores retired: 8868414
Cache fills: 10347715
L1D response latency: 101.27 cycles
Load retirement latency: 235.892 cycles
OOO test counter: 0
Discarded buffer inserts: 19422088 hits: 10864 hit %: 0.0559363
Speculative prefetch buffer size: 0
CPU 0 L1D PC-based stride prefetcher final stats
Degree: 3

DRAM Statistics
 CHANNEL 0
 RQ ROW_BUFFER_HIT:      11254  ROW_BUFFER_MISS:    5096437
 DBUS_CONGESTED:         82
 WQ ROW_BUFFER_HIT:    1420803  ROW_BUFFER_MISS:    3578238  FULL:          0

 AVG_CONGESTED_CYCLE: 5
 All warmup complete: 2
Channel 0 Bank busy for read cycles: 0
Channel 0 Bank busy for write cycles: 0
Channel 0
Rank 0
0banks busy for read cycles: 58378886
0banks busy for write cycles: 592485
1banks busy for read cycles: 385011132
1banks busy for write cycles: 102742963
2banks busy for read cycles: 136817163
2banks busy for write cycles: 92343140
3banks busy for read cycles: 32563010
3banks busy for write cycles: 71415226
4banks busy for read cycles: 2091154
4banks busy for write cycles: 51679651
5banks busy for read cycles: 72907
5banks busy for write cycles: 32064776
6banks busy for read cycles: 8994
6banks busy for write cycles: 16086652
7banks busy for read cycles: 483
7banks busy for write cycles: 6680924
8banks busy for read cycles: 0
8banks busy for write cycles: 3110794

CPU 0 Branch Prediction Accuracy: 99.988% MPKI: 0.01864 Average ROB Occupancy at Mispredict: 326.821
Branch types
NOT_BRANCH: 168845084 84.4225%
BRANCH_DIRECT_JUMP: 4549688 2.27484%
BRANCH_INDIRECT: 0 0%
BRANCH_CONDITIONAL: 17736819 8.86841%
BRANCH_DIRECT_CALL: 4434205 2.2171%
BRANCH_INDIRECT_CALL: 0 0%
BRANCH_RETURN: 4434205 2.2171%
BRANCH_OTHER: 0 0%

DRAM PAGES: 1048576
Allocated PAGES: 101164
