
*** ChampSim Multicore Out-of-Order Simulator ***

Warmup Instructions: 50000000
Simulation Instructions: 200000000
Number of CPUs: 1
LLC sets: 2048
LLC ways: 16
L0D sets: 16
L0D ways: 2
ROB size: 352
LQ size: 128
SQ size: 72
Secure Berti: OFF
Berti: OFF
Berti Fill: OFF
On commit prefetching: ON
Hit-based filter: ON
Time-guarding: ON
Free-slotting: ON
Leap-frogging: ON
Train prefetcher on L0D bypass: OFF
No translation penalty for prefetchers: OFF
Prefetch to L0D only: OFF
Prefetch to L1D only: OFF
Clean evictions: ON
Commit loads: ON
Commit write: ON
Fill commit loads to L2C, LLC: ON
DRAM IO FREQUENCY: 6400
ROB SIZE: 352
Off-chip DRAM Size: 4096 MB Channels: 1 Width: 64-bit Data Rate: 6400 MT/s
CPU 0 runs /home/sumon/secure_berti/GhostMinion/../../traces/spec/605.mcf_s-1152B.champsimtrace.xz
.xz
BTB has LRU replacement policy
ITLB has LRU replacement policy
DTLB has LRU replacement policy
STLB has LRU replacement policy
L1I has LRU replacement policy
L0D has LRU replacement policy
CPU 0 L1D IP-based stride prefetcher
L1D has LRU replacement policy
L2C has LRU replacement policy
LLC has LRU replacement policy
Heartbeat CPU 0 instructions: 10000001 cycles: 5578002 heartbeat IPC: 1.79276 cumulative IPC: 1.79276 (Simulation time: 0 hr 0 min 50 sec) 
Heartbeat CPU 0 instructions: 20000000 cycles: 11111619 heartbeat IPC: 1.80714 cumulative IPC: 1.79992 (Simulation time: 0 hr 1 min 39 sec) 
Heartbeat CPU 0 instructions: 30000000 cycles: 16668167 heartbeat IPC: 1.79968 cumulative IPC: 1.79984 (Simulation time: 0 hr 2 min 27 sec) 
Heartbeat CPU 0 instructions: 40000001 cycles: 22241837 heartbeat IPC: 1.79415 cumulative IPC: 1.79841 (Simulation time: 0 hr 3 min 17 sec) 
Heartbeat CPU 0 instructions: 50000001 cycles: 27801536 heartbeat IPC: 1.79866 cumulative IPC: 1.79846 (Simulation time: 0 hr 4 min 9 sec) 

Warmup complete CPU 0 instructions: 50000001 cycles: 27801536 (Simulation time: 0 hr 4 min 9 sec) 

Heartbeat CPU 0 instructions: 60000001 cycles: 65301544 heartbeat IPC: 0.266667 cumulative IPC: 0.266667 (Simulation time: 0 hr 5 min 12 sec) 
Heartbeat CPU 0 instructions: 70000000 cycles: 103181523 heartbeat IPC: 0.263992 cumulative IPC: 0.265322 (Simulation time: 0 hr 6 min 16 sec) 
Heartbeat CPU 0 instructions: 80000001 cycles: 140629972 heartbeat IPC: 0.267034 cumulative IPC: 0.26589 (Simulation time: 0 hr 7 min 21 sec) 
Heartbeat CPU 0 instructions: 90000003 cycles: 178407813 heartbeat IPC: 0.264705 cumulative IPC: 0.265593 (Simulation time: 0 hr 8 min 26 sec) 
Heartbeat CPU 0 instructions: 100000001 cycles: 216443811 heartbeat IPC: 0.262909 cumulative IPC: 0.265052 (Simulation time: 0 hr 9 min 35 sec) 
Heartbeat CPU 0 instructions: 110000000 cycles: 254721053 heartbeat IPC: 0.261252 cumulative IPC: 0.264411 (Simulation time: 0 hr 10 min 43 sec) 
Heartbeat CPU 0 instructions: 120000002 cycles: 293223214 heartbeat IPC: 0.259726 cumulative IPC: 0.263731 (Simulation time: 0 hr 11 min 54 sec) 
Heartbeat CPU 0 instructions: 130000002 cycles: 332626197 heartbeat IPC: 0.253788 cumulative IPC: 0.262446 (Simulation time: 0 hr 13 min 7 sec) 
Heartbeat CPU 0 instructions: 140000003 cycles: 372751170 heartbeat IPC: 0.249221 cumulative IPC: 0.260908 (Simulation time: 0 hr 14 min 16 sec) 
Heartbeat CPU 0 instructions: 150000001 cycles: 413891459 heartbeat IPC: 0.243071 cumulative IPC: 0.259007 (Simulation time: 0 hr 15 min 29 sec) 
Heartbeat CPU 0 instructions: 160000000 cycles: 456154685 heartbeat IPC: 0.236612 cumulative IPC: 0.256797 (Simulation time: 0 hr 16 min 41 sec) 
Heartbeat CPU 0 instructions: 170000001 cycles: 499947600 heartbeat IPC: 0.228347 cumulative IPC: 0.254159 (Simulation time: 0 hr 17 min 48 sec) 
Heartbeat CPU 0 instructions: 180000001 cycles: 544388268 heartbeat IPC: 0.225019 cumulative IPC: 0.251652 (Simulation time: 0 hr 18 min 57 sec) 
Heartbeat CPU 0 instructions: 190000002 cycles: 589225481 heartbeat IPC: 0.223029 cumulative IPC: 0.249366 (Simulation time: 0 hr 20 min 2 sec) 
Heartbeat CPU 0 instructions: 200000001 cycles: 634344803 heartbeat IPC: 0.221635 cumulative IPC: 0.247303 (Simulation time: 0 hr 21 min 1 sec) 
Heartbeat CPU 0 instructions: 210000002 cycles: 678470891 heartbeat IPC: 0.226623 cumulative IPC: 0.245901 (Simulation time: 0 hr 21 min 54 sec) 
Heartbeat CPU 0 instructions: 220000000 cycles: 721512750 heartbeat IPC: 0.232332 cumulative IPC: 0.245059 (Simulation time: 0 hr 22 min 46 sec) 
Heartbeat CPU 0 instructions: 230000002 cycles: 764336120 heartbeat IPC: 0.233517 cumulative IPC: 0.244388 (Simulation time: 0 hr 23 min 37 sec) 
Heartbeat CPU 0 instructions: 240000000 cycles: 810812422 heartbeat IPC: 0.215163 cumulative IPC: 0.242653 (Simulation time: 0 hr 24 min 29 sec) 
Heartbeat CPU 0 instructions: 250000001 cycles: 854296053 heartbeat IPC: 0.229972 cumulative IPC: 0.241986 (Simulation time: 0 hr 25 min 17 sec) 
Finished CPU 0 instructions: 200000000 cycles: 826494517 cumulative IPC: 0.241986 (Simulation time: 0 hr 25 min 17 sec) 
 Instruction ID: 250000117

ChampSim completed all CPUs

Region of Interest Statistics

CPU 0 cumulative IPC: 0.241986 instructions: 200000000 cycles: 826494517
ITLB SPEC fills:          0  NON-SPEC fills:          0
ITLB Test counter :          0
ITLB Leapfrog:          0
ITLB MSHR merge:          0
ITLB TOTAL     ACCESS:   34761290  HIT:   34761290  MISS:          0  HIT %:        100  MISS %:          0   MPKI: 0
ITLB LOAD TRANSLATION NON_SPEC    ACCESS:   34761290  HIT:   34761290  MISS:          0  HIT %:        100  MISS %:          0   MPKI: 0
ITLB PREFETCH  REQUESTED:          0  ISSUED:          0  USEFUL:          0  USELESS:          0
ITLB USEFUL LOAD PREFETCHES:          0 PREFETCH ISSUED TO LOWER LEVEL:          0  ACCURACY: -nan
ITLB TIMELY PREFETCHES:          0 LATE PREFETCHES: 0 DROPPED PREFETCHES: 0
ITLB COMMIT LATE PREFETCHES: 0 MISSED OPPORTUNITY: 0 LATE IN PQ: 0 UNCOVERED: 0
ITLB COMMIT LATE MSHR PREFETCHES: 0
ITLB MPKI TOTAL: 0 MSHR LATE: 0 PQ LATE: 0 COMMIT LATE: 0 MISSED OPPORTUNITY: 0 UNCOVERED: 0
ITLB PREFETCHES SAME FILL-ORIGIN LEVEL: 0 DIFFERENT FILL-ORIGIN LEVEL: 0
ITLB AVERAGE MISS LATENCY: -nan cycles
ITLB AVERAGE MISS LATENCY LOAD: -nan cycles
ITLB AVERAGE MISS LATENCY PREFETCH: -nan cycles
ITLB AVERAGE MSHR OCCUPANCY: 0
ITLB MSHR FULL: 0
ITLB RQ	ACCESS:   36223720	FORWARD:          0	MERGED:    1462431	TO_CACHE:   34761289

DTLB SPEC fills:          0  NON-SPEC fills:          0
DTLB Test counter :          0
DTLB Leapfrog:          0
DTLB MSHR merge:          0
DTLB TOTAL     ACCESS:   59694348  HIT:   52384872  MISS:    7309476  HIT %:    87.7552  MISS %:    12.2448   MPKI: 36.5474
DTLB LOAD TRANSLATION NON_SPEC    ACCESS:   59694348  HIT:   52384872  MISS:    7309476  HIT %:    87.7552  MISS %:    12.2448   MPKI: 36.5474
DTLB PREFETCH  REQUESTED:          0  ISSUED:          0  USEFUL:          0  USELESS:          0
DTLB USEFUL LOAD PREFETCHES:          0 PREFETCH ISSUED TO LOWER LEVEL:          0  ACCURACY: -nan
DTLB TIMELY PREFETCHES:          0 LATE PREFETCHES: 0 DROPPED PREFETCHES: 0
DTLB COMMIT LATE PREFETCHES: 0 MISSED OPPORTUNITY: 0 LATE IN PQ: 0 UNCOVERED: 0
DTLB COMMIT LATE MSHR PREFETCHES: 0
DTLB MPKI TOTAL: 0 MSHR LATE: 0 PQ LATE: 0 COMMIT LATE: 0 MISSED OPPORTUNITY: 0 UNCOVERED: 0
DTLB PREFETCHES SAME FILL-ORIGIN LEVEL: 0 DIFFERENT FILL-ORIGIN LEVEL: 0
DTLB AVERAGE MISS LATENCY: 11.4267 cycles
DTLB AVERAGE MISS LATENCY LOAD: -nan cycles
DTLB AVERAGE MISS LATENCY PREFETCH: -nan cycles
DTLB AVERAGE MSHR OCCUPANCY: 0.0786556
DTLB MSHR FULL: 1.66165e-08
DTLB RQ	ACCESS:   72805554	FORWARD:          0	MERGED:   12624577	TO_CACHE:   60180977

STLB SPEC fills:          0  NON-SPEC fills:          0
STLB Test counter :          0
STLB Leapfrog:          0
STLB MSHR merge:          0
STLB TOTAL     ACCESS:   12612821  HIT:   12513159  MISS:      99662  HIT %:    99.2098  MISS %:   0.790164   MPKI: 0.49831
STLB LOAD TRANSLATION NON_SPEC    ACCESS:    7309476  HIT:    7209814  MISS:      99662  HIT %:    98.6365  MISS %:    1.36346   MPKI: 0.49831
STLB TRANSLATION FROM L1D PREFETCHER NON_SPEC    ACCESS:    5303345  HIT:    5303345  MISS:          0  HIT %:        100  MISS %:          0   MPKI: 0
STLB PREFETCH  REQUESTED:          0  ISSUED:          0  USEFUL:          0  USELESS:          0
STLB USEFUL LOAD PREFETCHES:          0 PREFETCH ISSUED TO LOWER LEVEL:          0  ACCURACY: -nan
STLB TIMELY PREFETCHES:          0 LATE PREFETCHES: 0 DROPPED PREFETCHES: 0
STLB COMMIT LATE PREFETCHES: 0 MISSED OPPORTUNITY: 0 LATE IN PQ: 0 UNCOVERED: 0
STLB COMMIT LATE MSHR PREFETCHES: 0
STLB MPKI TOTAL: 0 MSHR LATE: 0 PQ LATE: 0 COMMIT LATE: 0 MISSED OPPORTUNITY: 0 UNCOVERED: 0
STLB PREFETCHES SAME FILL-ORIGIN LEVEL: 0 DIFFERENT FILL-ORIGIN LEVEL: 0
STLB AVERAGE MISS LATENCY: 170.576 cycles
STLB AVERAGE MISS LATENCY LOAD: -nan cycles
STLB AVERAGE MISS LATENCY PREFETCH: -nan cycles
STLB AVERAGE MSHR OCCUPANCY: 0.0150479
STLB MSHR FULL: 0
STLB RQ	ACCESS:   24411926	FORWARD:          0	MERGED:   11799102	TO_CACHE:   12612824

STLB Hit, L1D data hit: 0
STLB Hit, L2C data hit: 0
STLB Hit, LLC data hit: 0
STLB Hit, LLC data miss: 0
STLB STLB hints to L2: 0
L0D SPEC fills:   33690604  NON-SPEC fills:          0
L0D TimeGuard Request with older TS:     408006 Restricted eviction:     228058 read:     227810
L0D Test counter :          0
L0D Leapfrog:          0
L0D MSHR merge:    2446610
L0D TOTAL     ACCESS:   52556010  HIT:    3113018  MISS:   49442992  HIT %:    5.92324  MISS %:    94.0768   MPKI: 247.215
L0D LOAD      TOTAL       ACCESS:   52556010  HIT:    3113018  MISS:   49442992  HIT %:    5.92324  MISS %:    94.0768   MPKI: 247.215
L0D LOAD      NON_SPEC    ACCESS:   16099312  HIT:     574979  MISS:   15524333  HIT %:    3.57145  MISS %:    96.4285   MPKI: 77.6217
L0D LOAD      SPEC        ACCESS:   36456698  HIT:    2538039  MISS:   33918659  HIT %:    6.96179  MISS %:    93.0382   MPKI: 169.593
L0D PREFETCH  REQUESTED:          0  ISSUED:          0  USEFUL:          0  USELESS:          0
L0D USEFUL LOAD PREFETCHES:          0 PREFETCH ISSUED TO LOWER LEVEL:          0  ACCURACY: -nan
L0D TIMELY PREFETCHES:          0 LATE PREFETCHES: 0 DROPPED PREFETCHES: 0
L0D COMMIT LATE PREFETCHES: 0 MISSED OPPORTUNITY: 0 LATE IN PQ: 0 UNCOVERED: 0
L0D COMMIT LATE MSHR PREFETCHES: 0
L0D MPKI TOTAL: 259.448 MSHR LATE: 0 PQ LATE: 0 COMMIT LATE: 0 MISSED OPPORTUNITY: 0 UNCOVERED: 0
L0D PREFETCHES SAME FILL-ORIGIN LEVEL: 0 DIFFERENT FILL-ORIGIN LEVEL: 0
L0D AVERAGE MISS LATENCY: 28.5595 cycles
L0D AVERAGE MISS LATENCY LOAD: 28.5595 cycles
L0D AVERAGE MISS LATENCY PREFETCH: -nan cycles
L0D AVERAGE MSHR OCCUPANCY: 2.81935
L0D MSHR FULL: 0.241862
L0D RQ	ACCESS:   68382304	FORWARD:          0	MERGED:   13379683	TO_CACHE:   55002621
L0D WQ	ACCESS:   17802933	FORWARD:          0	MERGED:          0	TO_CACHE:   17802933

L1D SPEC fills:          0  NON-SPEC fills:    3568690
L1D Test counter :    7382802
L1D Leapfrog:          0
L1D MSHR merge:    1133606
L1D TOTAL     ACCESS:   91152310  HIT:   66928651  MISS:   24223659  HIT %:    73.4251  MISS %:    26.5749   MPKI: 121.118
L1D LOAD      TOTAL       ACCESS:   49439016  HIT:   37037774  MISS:   12401242  HIT %:    74.9161  MISS %:    25.0839   MPKI: 62.0062
L1D LOAD      NON_SPEC    ACCESS:   15523721  HIT:   11955031  MISS:    3568690  HIT %:    77.0114  MISS %:    22.9886   MPKI: 17.8435
L1D LOAD      SPEC        ACCESS:   33915295  HIT:   25082743  MISS:    8832552  HIT %:     73.957  MISS %:     26.043   MPKI: 44.1628
L1D RFO       NON_SPEC    ACCESS:   16683321  HIT:   16109533  MISS:     573788  HIT %:    96.5607  MISS %:    3.43929   MPKI: 2.86894
L1D PREFETCH  NON_SPEC    ACCESS:   11679560  HIT:    8298855  MISS:    3380705  HIT %:    71.0545  MISS %:    28.9455   MPKI: 16.9035
L1D COMMIT LOAD NON_SPEC    ACCESS:    4851819  HIT:    4507792  MISS:     344027  HIT %:    92.9093  MISS %:    7.09068   MPKI: 1.72013
L1D COMMIT WRITE NON_SPEC    ACCESS:    8498594  HIT:     974697  MISS:    7523897  HIT %:    11.4689  MISS %:    88.5311   MPKI: 37.6195
L1D PREFETCH  REQUESTED:   39621585  ISSUED:   39616680  USEFUL:    2067190  USELESS:    1313523
L1D USEFUL LOAD PREFETCHES:    2067190 PREFETCH ISSUED TO LOWER LEVEL:    4791247  ACCURACY: 43.1451
L1D TIMELY PREFETCHES:    2067190 LATE PREFETCHES: 1187945 DROPPED PREFETCHES: 0
L1D COMMIT LATE PREFETCHES: 0 MISSED OPPORTUNITY: 0 LATE IN PQ: 0 UNCOVERED: 0
L1D COMMIT LATE MSHR PREFETCHES: 0
L1D MPKI TOTAL: 62.0261 MSHR LATE: 5.93973 PQ LATE: 0 COMMIT LATE: 0 MISSED OPPORTUNITY: 0 UNCOVERED: 0
L1D PREFETCHES SAME FILL-ORIGIN LEVEL: 4569566 DIFFERENT FILL-ORIGIN LEVEL: 221681
L1D AVERAGE MISS LATENCY: 70.2639 cycles
L1D AVERAGE MISS LATENCY LOAD: 88.7272 cycles
L1D AVERAGE MISS LATENCY PREFETCH: 168.033 cycles
L1D AVERAGE MSHR OCCUPANCY: 1.34815
L1D MSHR FULL: 0.000451887
L1D RQ	ACCESS:   58369453	FORWARD:          0	MERGED:    4054497	TO_CACHE:   54310612
L1D WQ	ACCESS:   26302240	FORWARD:       4344	MERGED:     144681	TO_CACHE:   26157559
L1D PQ	ACCESS:   39616680	FORWARD:          0	MERGED:   22514230	TO_CACHE:   17102450

L1D UNIQUE REGIONS ACCESSED: 0
L1D REGIONS CONFLICTS: 0
L1D Cross Page Prefetch Requests: 0
L1D Same Page Prefetch Requests: 47034548
L1D ROI Sum of L1D PQ occupancy: 240614510
L1D PREFETCHES PUSHED FROM L2C: 0
L1I SPEC fills:          0  NON-SPEC fills:          0
L1I Test counter :          0
L1I Leapfrog:          0
L1I MSHR merge:          0
L1I TOTAL     ACCESS:   36223721  HIT:   36223719  MISS:          2  HIT %:        100  MISS %: 5.52124e-06   MPKI: 1e-05
L1I LOAD      TOTAL       ACCESS:   36223721  HIT:   36223719  MISS:          2  HIT %:        100  MISS %: 5.52124e-06   MPKI: 1e-05
L1I LOAD      NON_SPEC    ACCESS:   36223721  HIT:   36223719  MISS:          2  HIT %:        100  MISS %: 5.52124e-06   MPKI: 1e-05
L1I PREFETCH  REQUESTED:          0  ISSUED:          0  USEFUL:          0  USELESS:          0
L1I USEFUL LOAD PREFETCHES:          0 PREFETCH ISSUED TO LOWER LEVEL:          0  ACCURACY: -nan
L1I TIMELY PREFETCHES:          0 LATE PREFETCHES: 0 DROPPED PREFETCHES: 0
L1I COMMIT LATE PREFETCHES: 0 MISSED OPPORTUNITY: 0 LATE IN PQ: 0 UNCOVERED: 0
L1I COMMIT LATE MSHR PREFETCHES: 0
L1I MPKI TOTAL: 1e-05 MSHR LATE: 0 PQ LATE: 0 COMMIT LATE: 0 MISSED OPPORTUNITY: 0 UNCOVERED: 0
L1I PREFETCHES SAME FILL-ORIGIN LEVEL: 0 DIFFERENT FILL-ORIGIN LEVEL: 0
L1I AVERAGE MISS LATENCY: 214 cycles
L1I AVERAGE MISS LATENCY LOAD: 214 cycles
L1I AVERAGE MISS LATENCY PREFETCH: -nan cycles
L1I AVERAGE MSHR OCCUPANCY: 2.76062e-08
L1I MSHR FULL: 0
L1I RQ	ACCESS:   55448443	FORWARD:          0	MERGED:   19224723	TO_CACHE:   36223720

BTB SPEC fills:          0  NON-SPEC fills:          0
BTB Test counter :          0
BTB Leapfrog:          0
BTB MSHR merge:          0
BTB TOTAL     ACCESS:   49743916  HIT:   48131262  MISS:    1612654  HIT %:    96.7581  MISS %:    3.24191   MPKI: 8.06327
BTB BRANCH_DIRECT_JUMP	ACCESS:    5836928  HIT:    5836891  MISS:         37
BTB BRANCH_INDIRECT	ACCESS:          0  HIT:          0  MISS:          0
BTB BRANCH_CONDITIONAL	ACCESS:   36112465  HIT:   36112386  MISS:         79
BTB BRANCH_DIRECT_CALL	ACCESS:    3647058  HIT:    3647040  MISS:         18
BTB BRANCH_INDIRECT_CALL	ACCESS:     250202  HIT:     250194  MISS:          8
BTB BRANCH_RETURN	ACCESS:    3897263  HIT:    2284751  MISS:    1612512
BTB BRANCH_OTHER ACCESS:          0  HIT:          0  MISS:          0

L2C SPEC fills:          0  NON-SPEC fills:    2542124
L2C Test counter :    7323237
L2C Leapfrog:          0
L2C MSHR merge:       2547
L2C TOTAL     ACCESS:   25428401  HIT:    7333892  MISS:   18094509  HIT %:    28.8413  MISS %:    71.1587   MPKI: 90.4725
L2C LOAD      TOTAL       ACCESS:   11271448  HIT:    2179943  MISS:    9091505  HIT %:    19.3404  MISS %:    80.6596   MPKI: 45.4575
L2C LOAD      NON_SPEC    ACCESS:    3472962  HIT:     930836  MISS:    2542126  HIT %:    26.8024  MISS %:    73.1976   MPKI: 12.7106
L2C LOAD      SPEC        ACCESS:    7798486  HIT:    1249107  MISS:    6549379  HIT %:    16.0173  MISS %:    83.9827   MPKI: 32.7469
L2C RFO       NON_SPEC    ACCESS:     572798  HIT:     302429  MISS:     270369  HIT %:    52.7985  MISS %:    47.2015   MPKI: 1.35184
L2C PREFETCH  NON_SPEC    ACCESS:    4684949  HIT:     659091  MISS:    4025858  HIT %:    14.0683  MISS %:    85.9317   MPKI: 20.1293
L2C WRITEBACK NON_SPEC    ACCESS:     732766  HIT:     732766  MISS:          0  HIT %:        100  MISS %:          0   MPKI: 0
L2C CLEAN_EVICTION NON_SPEC    ACCESS:    7382802  HIT:    2923677  MISS:    4459125  HIT %:    39.6012  MISS %:    60.3988   MPKI: 22.2956
L2C COMMIT LOAD NON_SPEC    ACCESS:     285712  HIT:      74378  MISS:     211334  HIT %:    26.0325  MISS %:    73.9675   MPKI: 1.05667
L2C LOAD TRANSLATION NON_SPEC    ACCESS:     497926  HIT:     461608  MISS:      36318  HIT %:    92.7061  MISS %:    7.29385   MPKI: 0.18159
L2C PREFETCH  REQUESTED:          0  ISSUED:          0  USEFUL:     253293  USELESS:    3773006
L2C USEFUL LOAD PREFETCHES:     253293 PREFETCH ISSUED TO LOWER LEVEL:    4030285  ACCURACY: 6.28474
L2C TIMELY PREFETCHES:     253293 LATE PREFETCHES: 4427 DROPPED PREFETCHES: 0
L2C COMMIT LATE PREFETCHES: 0 MISSED OPPORTUNITY: 0 LATE IN PQ: 0 UNCOVERED: 0
L2C COMMIT LATE MSHR PREFETCHES: 0
L2C MPKI TOTAL: 45.4575 MSHR LATE: 0.022135 PQ LATE: 0 COMMIT LATE: 0 MISSED OPPORTUNITY: 0 UNCOVERED: 0
L2C PREFETCHES SAME FILL-ORIGIN LEVEL: 173508 DIFFERENT FILL-ORIGIN LEVEL: 0
L2C AVERAGE MISS LATENCY: 89.5118 cycles
L2C AVERAGE MISS LATENCY LOAD: 88.3612 cycles
L2C AVERAGE MISS LATENCY PREFETCH: 196.569 cycles
L2C AVERAGE MSHR OCCUPANCY: 3.26488
L2C MSHR FULL: 0
L2C RQ	ACCESS:   12628124	FORWARD:          0	MERGED:          0	TO_CACHE:   12627884
L2C WQ	ACCESS:    8115570	FORWARD:        252	MERGED:          2	TO_CACHE:    8115568
L2C PQ	ACCESS:    4791247	FORWARD:          0	MERGED:         21	TO_CACHE:    4791214

L2C Instructions Evicting Data 2
L2C Translations Evicting Data 36222
L2C Data Evicting Data 7027260
L2C Instructions Evicting Instructions 0
L2C Translations Evicting Instructions 0
L2C Data Evicting Instructions 2
L2C Instructions Evicting Translations 0
L2C Translations Evicting Translations 96
L2C Data Evicting Translations 22423
L2C Dense regions hint from L2: 0
PSCL5 SPEC fills:          0  NON-SPEC fills:          0
PSCL5 Test counter :          0
PSCL5 Leapfrog:          0
PSCL5 MSHR merge:          0
PSCL5 TOTAL     ACCESS:          0  HIT:          0  MISS:          0  HIT %:       -nan  MISS %:       -nan   MPKI: 0
PSCL5 PREFETCH  REQUESTED:          0  ISSUED:          0  USEFUL:          0  USELESS:          0
PSCL5 USEFUL LOAD PREFETCHES:          0 PREFETCH ISSUED TO LOWER LEVEL:          0  ACCURACY: -nan
PSCL5 TIMELY PREFETCHES:          0 LATE PREFETCHES: 0 DROPPED PREFETCHES: 0
PSCL5 COMMIT LATE PREFETCHES: 0 MISSED OPPORTUNITY: 0 LATE IN PQ: 0 UNCOVERED: 0
PSCL5 COMMIT LATE MSHR PREFETCHES: 0
PSCL5 MPKI TOTAL: 0 MSHR LATE: 0 PQ LATE: 0 COMMIT LATE: 0 MISSED OPPORTUNITY: 0 UNCOVERED: 0
PSCL5 PREFETCHES SAME FILL-ORIGIN LEVEL: 0 DIFFERENT FILL-ORIGIN LEVEL: 0

PSCL4 SPEC fills:          0  NON-SPEC fills:          0
PSCL4 Test counter :          0
PSCL4 Leapfrog:          0
PSCL4 MSHR merge:          0
PSCL4 TOTAL     ACCESS:          0  HIT:          0  MISS:          0  HIT %:       -nan  MISS %:       -nan   MPKI: 0
PSCL4 PREFETCH  REQUESTED:          0  ISSUED:          0  USEFUL:          0  USELESS:          0
PSCL4 USEFUL LOAD PREFETCHES:          0 PREFETCH ISSUED TO LOWER LEVEL:          0  ACCURACY: -nan
PSCL4 TIMELY PREFETCHES:          0 LATE PREFETCHES: 0 DROPPED PREFETCHES: 0
PSCL4 COMMIT LATE PREFETCHES: 0 MISSED OPPORTUNITY: 0 LATE IN PQ: 0 UNCOVERED: 0
PSCL4 COMMIT LATE MSHR PREFETCHES: 0
PSCL4 MPKI TOTAL: 0 MSHR LATE: 0 PQ LATE: 0 COMMIT LATE: 0 MISSED OPPORTUNITY: 0 UNCOVERED: 0
PSCL4 PREFETCHES SAME FILL-ORIGIN LEVEL: 0 DIFFERENT FILL-ORIGIN LEVEL: 0

PSCL3 SPEC fills:          0  NON-SPEC fills:          0
PSCL3 Test counter :          0
PSCL3 Leapfrog:          0
PSCL3 MSHR merge:          0
PSCL3 TOTAL     ACCESS:          0  HIT:          0  MISS:          0  HIT %:       -nan  MISS %:       -nan   MPKI: 0
PSCL3 PREFETCH  REQUESTED:          0  ISSUED:          0  USEFUL:          0  USELESS:          0
PSCL3 USEFUL LOAD PREFETCHES:          0 PREFETCH ISSUED TO LOWER LEVEL:          0  ACCURACY: -nan
PSCL3 TIMELY PREFETCHES:          0 LATE PREFETCHES: 0 DROPPED PREFETCHES: 0
PSCL3 COMMIT LATE PREFETCHES: 0 MISSED OPPORTUNITY: 0 LATE IN PQ: 0 UNCOVERED: 0
PSCL3 COMMIT LATE MSHR PREFETCHES: 0
PSCL3 MPKI TOTAL: 0 MSHR LATE: 0 PQ LATE: 0 COMMIT LATE: 0 MISSED OPPORTUNITY: 0 UNCOVERED: 0
PSCL3 PREFETCHES SAME FILL-ORIGIN LEVEL: 0 DIFFERENT FILL-ORIGIN LEVEL: 0

PSCL2 SPEC fills:          0  NON-SPEC fills:          0
PSCL2 Test counter :          0
PSCL2 Leapfrog:          0
PSCL2 MSHR merge:          0
PSCL2 TOTAL     ACCESS:          0  HIT:          0  MISS:          0  HIT %:       -nan  MISS %:       -nan   MPKI: 0
PSCL2 PREFETCH  REQUESTED:          0  ISSUED:          0  USEFUL:          0  USELESS:          0
PSCL2 USEFUL LOAD PREFETCHES:          0 PREFETCH ISSUED TO LOWER LEVEL:          0  ACCURACY: -nan
PSCL2 TIMELY PREFETCHES:          0 LATE PREFETCHES: 0 DROPPED PREFETCHES: 0
PSCL2 COMMIT LATE PREFETCHES: 0 MISSED OPPORTUNITY: 0 LATE IN PQ: 0 UNCOVERED: 0
PSCL2 COMMIT LATE MSHR PREFETCHES: 0
PSCL2 MPKI TOTAL: 0 MSHR LATE: 0 PQ LATE: 0 COMMIT LATE: 0 MISSED OPPORTUNITY: 0 UNCOVERED: 0
PSCL2 PREFETCHES SAME FILL-ORIGIN LEVEL: 0 DIFFERENT FILL-ORIGIN LEVEL: 0

LLC SPEC fills:          0  NON-SPEC fills:     398091
LLC Test counter :    4271224
LLC Leapfrog:          0
LLC MSHR merge:          0
LLC TOTAL     ACCESS:   21381103  HIT:   12624518  MISS:    8756585  HIT %:    59.0452  MISS %:    40.9548   MPKI: 43.7829
LLC LOAD      TOTAL       ACCESS:    9088857  HIT:    5616885  MISS:    3471972  HIT %:    61.7997  MISS %:    38.2003   MPKI: 17.3599
LLC LOAD      NON_SPEC    ACCESS:    2541971  HIT:    2143878  MISS:     398093  HIT %:    84.3392  MISS %:    15.6608   MPKI: 1.99046
LLC LOAD      SPEC        ACCESS:    6546886  HIT:    3473007  MISS:    3073879  HIT %:    53.0482  MISS %:    46.9518   MPKI: 15.3694
LLC RFO       NON_SPEC    ACCESS:     270357  HIT:     264902  MISS:       5455  HIT %:    97.9823  MISS %:     2.0177   MPKI: 0.027275
LLC PREFETCH  NON_SPEC    ACCESS:    4030285  HIT:     103168  MISS:    3927117  HIT %:    2.55982  MISS %:    97.4402   MPKI: 19.6356
LLC WRITEBACK NON_SPEC    ACCESS:     422632  HIT:     416523  MISS:       6109  HIT %:    98.5545  MISS %:    1.44547   MPKI: 0.030545
LLC CLEAN_EVICTION NON_SPEC    ACCESS:    7323237  HIT:    6011257  MISS:    1311980  HIT %:    82.0847  MISS %:    17.9153   MPKI: 6.5599
LLC COMMIT LOAD NON_SPEC    ACCESS:     209417  HIT:     190950  MISS:      18467  HIT %:    91.1817  MISS %:    8.81829   MPKI: 0.092335
LLC LOAD TRANSLATION NON_SPEC    ACCESS:      36318  HIT:      20833  MISS:      15485  HIT %:    57.3627  MISS %:    42.6373   MPKI: 0.077425
LLC PREFETCH  REQUESTED:          0  ISSUED:          0  USEFUL:      94547  USELESS:    3832617
LLC USEFUL LOAD PREFETCHES:      94547 PREFETCH ISSUED TO LOWER LEVEL:    3927117  ACCURACY: 2.40754
LLC TIMELY PREFETCHES:      94547 LATE PREFETCHES: 0 DROPPED PREFETCHES: 0
LLC COMMIT LATE PREFETCHES: 0 MISSED OPPORTUNITY: 0 LATE IN PQ: 0 UNCOVERED: 0
LLC COMMIT LATE MSHR PREFETCHES: 0
LLC MPKI TOTAL: 17.3599 MSHR LATE: 0 PQ LATE: 0 COMMIT LATE: 0 MISSED OPPORTUNITY: 0 UNCOVERED: 0
LLC PREFETCHES SAME FILL-ORIGIN LEVEL: 0 DIFFERENT FILL-ORIGIN LEVEL: 0
LLC AVERAGE MISS LATENCY: 144.362 cycles
LLC AVERAGE MISS LATENCY LOAD: 168.894 cycles
LLC AVERAGE MISS LATENCY PREFETCH: 170.297 cycles
LLC AVERAGE MSHR OCCUPANCY: 2.74525
LLC MSHR FULL: 0
LLC RQ	ACCESS:    9605099	FORWARD:          0	MERGED:          0	TO_CACHE:    9604949
LLC WQ	ACCESS:    7745869	FORWARD:        150	MERGED:          0	TO_CACHE:    7745869
LLC PQ	ACCESS:    4030285	FORWARD:          0	MERGED:          0	TO_CACHE:    4030285

LLC Dense regions hint to LLC: 0

RAW hits: 2270677
Loads Generated: 70652983
Loads sent to L1D: 68382304
Stores Generated: 17802933
Stores sent to L1D: 17802933
Major fault: 0 Minor fault: 80635
Allocated PAGES: 80635
Total Load insts: 84735302
Total Non-spec loads: 17740315
Percentage of speculative loads: 79.0638

LeapFrogging counter: 8427368
Commit hits: 33445229 miss: 18746565
Commit hit %: 64.0814 miss %: 35.9186
Commits not translated: 0
Loads retired: 12401242
Stores retired: 17802933
Cache fills: 12401242
L1D response latency: 88.7272 cycles
Load retirement latency: 231.757 cycles
OOO test counter: 0
Discarded buffer inserts: 33445229 hits: 37785 hit %: 0.112976
Speculative prefetch buffer size: 0
CPU 0 L1D PC-based stride prefetcher final stats
Degree: 3

DRAM Statistics
 CHANNEL 0
 RQ ROW_BUFFER_HIT:    1664492  ROW_BUFFER_MISS:    5772239
 DBUS_CONGESTED:       8300
 WQ ROW_BUFFER_HIT:    1135441  ROW_BUFFER_MISS:    3173260  FULL:          0

 AVG_CONGESTED_CYCLE: 5
 All warmup complete: 2
Channel 0 Bank busy for read cycles: 0
Channel 0 Bank busy for write cycles: 0
Channel 0
Rank 0
0banks busy for read cycles: 328766907
0banks busy for write cycles: 79820
1banks busy for read cycles: 110250974
1banks busy for write cycles: 12346829
2banks busy for read cycles: 92629421
2banks busy for write cycles: 4667302
3banks busy for read cycles: 58923443
3banks busy for write cycles: 4295322
4banks busy for read cycles: 32722927
4banks busy for write cycles: 4574524
5banks busy for read cycles: 19755578
5banks busy for write cycles: 5341391
6banks busy for read cycles: 12632322
6banks busy for write cycles: 7378308
7banks busy for read cycles: 8911769
7banks busy for write cycles: 16577165
8banks busy for read cycles: 14225345
8banks busy for write cycles: 92415171

CPU 0 Branch Prediction Accuracy: 94.5902% MPKI: 13.9808 Average ROB Occupancy at Mispredict: 26.6237
Branch types
NOT_BRANCH: 148312419 74.1562%
BRANCH_DIRECT_JUMP: 5836928 2.91846%
BRANCH_INDIRECT: 0 0%
BRANCH_CONDITIONAL: 38055866 19.0279%
BRANCH_DIRECT_CALL: 3647058 1.82353%
BRANCH_INDIRECT_CALL: 250202 0.125101%
BRANCH_RETURN: 3897263 1.94863%
BRANCH_OTHER: 0 0%

DRAM PAGES: 1048576
Allocated PAGES: 80635
