
*** ChampSim Multicore Out-of-Order Simulator ***

Warmup Instructions: 50000000
Simulation Instructions: 200000000
Number of CPUs: 1
LLC sets: 2048
LLC ways: 16
L0D sets: 16
L0D ways: 2
ROB size: 352
LQ size: 128
SQ size: 72
Secure Berti: OFF
Berti: OFF
Berti Fill: OFF
On commit prefetching: ON
Hit-based filter: ON
Time-guarding: ON
Free-slotting: ON
Leap-frogging: ON
Train prefetcher on L0D bypass: OFF
No translation penalty for prefetchers: OFF
Prefetch to L0D only: OFF
Prefetch to L1D only: OFF
Clean evictions: ON
Commit loads: ON
Commit write: ON
Fill commit loads to L2C, LLC: ON
DRAM IO FREQUENCY: 6400
ROB SIZE: 352
Off-chip DRAM Size: 4096 MB Channels: 1 Width: 64-bit Data Rate: 6400 MT/s
CPU 0 runs /home/sumon/secure_berti/GhostMinion/../../traces/spec/619.lbm_s-4268B.champsimtrace.xz
.xz
BTB has LRU replacement policy
ITLB has LRU replacement policy
DTLB has LRU replacement policy
STLB has LRU replacement policy
L1I has LRU replacement policy
L0D has LRU replacement policy
CPU 0 L1D IP-based stride prefetcher
L1D has LRU replacement policy
L2C has LRU replacement policy
LLC has LRU replacement policy
Heartbeat CPU 0 instructions: 10000000 cycles: 3060796 heartbeat IPC: 3.26712 cumulative IPC: 3.26712 (Simulation time: 0 hr 0 min 38 sec) 
Heartbeat CPU 0 instructions: 20000003 cycles: 6120518 heartbeat IPC: 3.26827 cumulative IPC: 3.2677 (Simulation time: 0 hr 1 min 17 sec) 
Heartbeat CPU 0 instructions: 30000000 cycles: 9174355 heartbeat IPC: 3.27457 cumulative IPC: 3.26998 (Simulation time: 0 hr 1 min 55 sec) 
Heartbeat CPU 0 instructions: 40000000 cycles: 12235614 heartbeat IPC: 3.26663 cumulative IPC: 3.26915 (Simulation time: 0 hr 2 min 33 sec) 
Heartbeat CPU 0 instructions: 50000002 cycles: 15299741 heartbeat IPC: 3.26357 cumulative IPC: 3.26803 (Simulation time: 0 hr 3 min 12 sec) 

Warmup complete CPU 0 instructions: 50000002 cycles: 15299741 (Simulation time: 0 hr 3 min 12 sec) 

Heartbeat CPU 0 instructions: 60000000 cycles: 44389243 heartbeat IPC: 0.343767 cumulative IPC: 0.343767 (Simulation time: 0 hr 4 min 39 sec) 
Heartbeat CPU 0 instructions: 70000000 cycles: 73004541 heartbeat IPC: 0.349463 cumulative IPC: 0.346592 (Simulation time: 0 hr 6 min 10 sec) 
Heartbeat CPU 0 instructions: 80000000 cycles: 100931549 heartbeat IPC: 0.358076 cumulative IPC: 0.350337 (Simulation time: 0 hr 7 min 43 sec) 
Heartbeat CPU 0 instructions: 90000000 cycles: 129386634 heartbeat IPC: 0.351431 cumulative IPC: 0.35061 (Simulation time: 0 hr 9 min 18 sec) 
Heartbeat CPU 0 instructions: 100000001 cycles: 157300892 heartbeat IPC: 0.35824 cumulative IPC: 0.35211 (Simulation time: 0 hr 10 min 54 sec) 
Heartbeat CPU 0 instructions: 110000000 cycles: 185599013 heartbeat IPC: 0.35338 cumulative IPC: 0.352321 (Simulation time: 0 hr 12 min 34 sec) 
Heartbeat CPU 0 instructions: 120000001 cycles: 214464869 heartbeat IPC: 0.34643 cumulative IPC: 0.351467 (Simulation time: 0 hr 14 min 10 sec) 
Heartbeat CPU 0 instructions: 130000001 cycles: 242369909 heartbeat IPC: 0.358358 cumulative IPC: 0.352314 (Simulation time: 0 hr 15 min 43 sec) 
Heartbeat CPU 0 instructions: 140000003 cycles: 270751534 heartbeat IPC: 0.352341 cumulative IPC: 0.352317 (Simulation time: 0 hr 17 min 10 sec) 
Heartbeat CPU 0 instructions: 150000003 cycles: 299601958 heartbeat IPC: 0.346615 cumulative IPC: 0.351738 (Simulation time: 0 hr 18 min 32 sec) 
Heartbeat CPU 0 instructions: 160000002 cycles: 328608680 heartbeat IPC: 0.344748 cumulative IPC: 0.351091 (Simulation time: 0 hr 19 min 50 sec) 
Heartbeat CPU 0 instructions: 170000002 cycles: 357427372 heartbeat IPC: 0.346997 cumulative IPC: 0.350746 (Simulation time: 0 hr 20 min 56 sec) 
Heartbeat CPU 0 instructions: 180000003 cycles: 386119013 heartbeat IPC: 0.348534 cumulative IPC: 0.350575 (Simulation time: 0 hr 21 min 54 sec) 
Heartbeat CPU 0 instructions: 190000002 cycles: 414970717 heartbeat IPC: 0.3466 cumulative IPC: 0.350288 (Simulation time: 0 hr 22 min 52 sec) 
Heartbeat CPU 0 instructions: 200000002 cycles: 443932015 heartbeat IPC: 0.345288 cumulative IPC: 0.34995 (Simulation time: 0 hr 23 min 50 sec) 
Heartbeat CPU 0 instructions: 210000001 cycles: 473314407 heartbeat IPC: 0.34034 cumulative IPC: 0.349334 (Simulation time: 0 hr 24 min 48 sec) 
Heartbeat CPU 0 instructions: 220000000 cycles: 502645973 heartbeat IPC: 0.34093 cumulative IPC: 0.348828 (Simulation time: 0 hr 25 min 45 sec) 
Heartbeat CPU 0 instructions: 230000000 cycles: 531595210 heartbeat IPC: 0.345432 cumulative IPC: 0.348638 (Simulation time: 0 hr 26 min 40 sec) 
Heartbeat CPU 0 instructions: 240000001 cycles: 560602829 heartbeat IPC: 0.344737 cumulative IPC: 0.34843 (Simulation time: 0 hr 27 min 35 sec) 
Heartbeat CPU 0 instructions: 250000001 cycles: 588798616 heartbeat IPC: 0.354663 cumulative IPC: 0.348737 (Simulation time: 0 hr 28 min 29 sec) 
Finished CPU 0 instructions: 200000002 cycles: 573498876 cumulative IPC: 0.348737 (Simulation time: 0 hr 28 min 29 sec) 
 Instruction ID: 250000361

ChampSim completed all CPUs

Region of Interest Statistics

CPU 0 cumulative IPC: 0.348737 instructions: 200000002 cycles: 573498876
ITLB SPEC fills:          0  NON-SPEC fills:          0
ITLB Test counter :          0
ITLB Leapfrog:          0
ITLB MSHR merge:          0
ITLB TOTAL     ACCESS:   27121793  HIT:   27121793  MISS:          0  HIT %:        100  MISS %:          0   MPKI: 0
ITLB LOAD TRANSLATION NON_SPEC    ACCESS:   27121793  HIT:   27121793  MISS:          0  HIT %:        100  MISS %:          0   MPKI: 0
ITLB PREFETCH  REQUESTED:          0  ISSUED:          0  USEFUL:          0  USELESS:          0
ITLB USEFUL LOAD PREFETCHES:          0 PREFETCH ISSUED TO LOWER LEVEL:          0  ACCURACY: -nan
ITLB TIMELY PREFETCHES:          0 LATE PREFETCHES: 0 DROPPED PREFETCHES: 0
ITLB COMMIT LATE PREFETCHES: 0 MISSED OPPORTUNITY: 0 LATE IN PQ: 0 UNCOVERED: 0
ITLB COMMIT LATE MSHR PREFETCHES: 0
ITLB MPKI TOTAL: 0 MSHR LATE: 0 PQ LATE: 0 COMMIT LATE: 0 MISSED OPPORTUNITY: 0 UNCOVERED: 0
ITLB PREFETCHES SAME FILL-ORIGIN LEVEL: 0 DIFFERENT FILL-ORIGIN LEVEL: 0
ITLB AVERAGE MISS LATENCY: -nan cycles
ITLB AVERAGE MISS LATENCY LOAD: -nan cycles
ITLB AVERAGE MISS LATENCY PREFETCH: -nan cycles
ITLB AVERAGE MSHR OCCUPANCY: 0
ITLB MSHR FULL: 0
ITLB RQ	ACCESS:   34946890	FORWARD:          0	MERGED:    7825097	TO_CACHE:   27121793

DTLB SPEC fills:          0  NON-SPEC fills:          0
DTLB Test counter :          0
DTLB Leapfrog:          0
DTLB MSHR merge:          0
DTLB TOTAL     ACCESS:   38686513  HIT:   38409986  MISS:     276527  HIT %:    99.2852  MISS %:   0.714789   MPKI: 1.38263
DTLB LOAD TRANSLATION NON_SPEC    ACCESS:   38686513  HIT:   38409986  MISS:     276527  HIT %:    99.2852  MISS %:   0.714789   MPKI: 1.38263
DTLB PREFETCH  REQUESTED:          0  ISSUED:          0  USEFUL:          0  USELESS:          0
DTLB USEFUL LOAD PREFETCHES:          0 PREFETCH ISSUED TO LOWER LEVEL:          0  ACCURACY: -nan
DTLB TIMELY PREFETCHES:          0 LATE PREFETCHES: 0 DROPPED PREFETCHES: 0
DTLB COMMIT LATE PREFETCHES: 0 MISSED OPPORTUNITY: 0 LATE IN PQ: 0 UNCOVERED: 0
DTLB COMMIT LATE MSHR PREFETCHES: 0
DTLB MPKI TOTAL: 0 MSHR LATE: 0 PQ LATE: 0 COMMIT LATE: 0 MISSED OPPORTUNITY: 0 UNCOVERED: 0
DTLB PREFETCHES SAME FILL-ORIGIN LEVEL: 0 DIFFERENT FILL-ORIGIN LEVEL: 0
DTLB AVERAGE MISS LATENCY: 131.761 cycles
DTLB AVERAGE MISS LATENCY LOAD: -nan cycles
DTLB AVERAGE MISS LATENCY PREFETCH: -nan cycles
DTLB AVERAGE MSHR OCCUPANCY: 0.0875316
DTLB MSHR FULL: 0
DTLB RQ	ACCESS:   61313290	FORWARD:          0	MERGED:   22491069	TO_CACHE:   38822221

STLB SPEC fills:          0  NON-SPEC fills:          0
STLB Test counter :          0
STLB Leapfrog:          0
STLB MSHR merge:          0
STLB TOTAL     ACCESS:     283333  HIT:     133285  MISS:     150048  HIT %:    47.0418  MISS %:    52.9582   MPKI: 0.75024
STLB LOAD TRANSLATION NON_SPEC    ACCESS:     276527  HIT:     126479  MISS:     150048  HIT %:    45.7384  MISS %:    54.2616   MPKI: 0.75024
STLB TRANSLATION FROM L1D PREFETCHER NON_SPEC    ACCESS:       6806  HIT:       6806  MISS:          0  HIT %:        100  MISS %:          0   MPKI: 0
STLB PREFETCH  REQUESTED:          0  ISSUED:          0  USEFUL:          0  USELESS:          0
STLB USEFUL LOAD PREFETCHES:          0 PREFETCH ISSUED TO LOWER LEVEL:          0  ACCURACY: -nan
STLB TIMELY PREFETCHES:          0 LATE PREFETCHES: 0 DROPPED PREFETCHES: 0
STLB COMMIT LATE PREFETCHES: 0 MISSED OPPORTUNITY: 0 LATE IN PQ: 0 UNCOVERED: 0
STLB COMMIT LATE MSHR PREFETCHES: 0
STLB MPKI TOTAL: 0 MSHR LATE: 0 PQ LATE: 0 COMMIT LATE: 0 MISSED OPPORTUNITY: 0 UNCOVERED: 0
STLB PREFETCHES SAME FILL-ORIGIN LEVEL: 0 DIFFERENT FILL-ORIGIN LEVEL: 0
STLB AVERAGE MISS LATENCY: 226.122 cycles
STLB AVERAGE MISS LATENCY LOAD: -nan cycles
STLB AVERAGE MISS LATENCY PREFETCH: -nan cycles
STLB AVERAGE MSHR OCCUPANCY: 0.158064
STLB MSHR FULL: 0
STLB RQ	ACCESS:     288629	FORWARD:          0	MERGED:       5288	TO_CACHE:     283341

STLB Hit, L1D data hit: 0
STLB Hit, L2C data hit: 0
STLB Hit, LLC data hit: 0
STLB Hit, LLC data miss: 0
STLB STLB hints to L2: 0
L0D SPEC fills:   11799448  NON-SPEC fills:          0
L0D TimeGuard Request with older TS:     203105 Restricted eviction:      64940 read:    1258891
L0D Test counter :          0
L0D Leapfrog:          0
L0D MSHR merge:    4848434
L0D TOTAL     ACCESS:   19496954  HIT:    6567419  MISS:   12929535  HIT %:    33.6843  MISS %:    66.3157   MPKI: 64.6477
L0D LOAD      TOTAL       ACCESS:   19496954  HIT:    6567419  MISS:   12929535  HIT %:    33.6843  MISS %:    66.3157   MPKI: 64.6477
L0D LOAD      NON_SPEC    ACCESS:    1670562  HIT:     605415  MISS:    1065147  HIT %:    36.2402  MISS %:    63.7598   MPKI: 5.32573
L0D LOAD      SPEC        ACCESS:   17826392  HIT:    5962004  MISS:   11864388  HIT %:    33.4448  MISS %:    66.5552   MPKI: 59.3219
L0D PREFETCH  REQUESTED:          0  ISSUED:          0  USEFUL:          0  USELESS:          0
L0D USEFUL LOAD PREFETCHES:          0 PREFETCH ISSUED TO LOWER LEVEL:          0  ACCURACY: -nan
L0D TIMELY PREFETCHES:          0 LATE PREFETCHES: 0 DROPPED PREFETCHES: 0
L0D COMMIT LATE PREFETCHES: 0 MISSED OPPORTUNITY: 0 LATE IN PQ: 0 UNCOVERED: 0
L0D COMMIT LATE MSHR PREFETCHES: 0
L0D MPKI TOTAL: 88.8898 MSHR LATE: 0 PQ LATE: 0 COMMIT LATE: 0 MISSED OPPORTUNITY: 0 UNCOVERED: 0
L0D PREFETCHES SAME FILL-ORIGIN LEVEL: 0 DIFFERENT FILL-ORIGIN LEVEL: 0
L0D AVERAGE MISS LATENCY: 130.232 cycles
L0D AVERAGE MISS LATENCY LOAD: 130.232 cycles
L0D AVERAGE MISS LATENCY PREFETCH: -nan cycles
L0D AVERAGE MSHR OCCUPANCY: 2.17017
L0D MSHR FULL: 0.0795787
L0D RQ	ACCESS:   47488814	FORWARD:          0	MERGED:   23143428	TO_CACHE:   24345386
L0D WQ	ACCESS:   36967904	FORWARD:          0	MERGED:          0	TO_CACHE:   36967904

L1D SPEC fills:          0  NON-SPEC fills:      22922
L1D Test counter :    2389346
L1D Leapfrog:          0
L1D MSHR merge:       5450
L1D TOTAL     ACCESS:   54852535  HIT:   36237289  MISS:   18615246  HIT %:    66.0631  MISS %:    33.9369   MPKI: 93.0762
L1D LOAD      TOTAL       ACCESS:   12924086  HIT:   10438421  MISS:    2485665  HIT %:    80.7672  MISS %:    19.2328   MPKI: 12.4283
L1D LOAD      NON_SPEC    ACCESS:    1062719  HIT:    1039797  MISS:      22922  HIT %:    97.8431  MISS %:    2.15692   MPKI: 0.11461
L1D LOAD      SPEC        ACCESS:   11861367  HIT:    9398624  MISS:    2462743  HIT %:    79.2373  MISS %:    20.7627   MPKI: 12.3137
L1D RFO       NON_SPEC    ACCESS:   36794423  HIT:   23355878  MISS:   13438545  HIT %:    63.4767  MISS %:    36.5233   MPKI: 67.1927
L1D PREFETCH  NON_SPEC    ACCESS:       3308  HIT:        252  MISS:       3056  HIT %:     7.6179  MISS %:    92.3821   MPKI: 0.01528
L1D COMMIT LOAD NON_SPEC    ACCESS:    2659771  HIT:    2400753  MISS:     259018  HIT %:    90.2616  MISS %:    9.73836   MPKI: 1.29509
L1D COMMIT WRITE NON_SPEC    ACCESS:    2470947  HIT:      41985  MISS:    2428962  HIT %:    1.69915  MISS %:    98.3009   MPKI: 12.1448
L1D PREFETCH  REQUESTED:      25239  ISSUED:      23216  USEFUL:        869  USELESS:       2187
L1D USEFUL LOAD PREFETCHES:        869 PREFETCH ISSUED TO LOWER LEVEL:      11036  ACCURACY: 7.87423
L1D TIMELY PREFETCHES:        869 LATE PREFETCHES: 2 DROPPED PREFETCHES: 0
L1D COMMIT LATE PREFETCHES: 0 MISSED OPPORTUNITY: 0 LATE IN PQ: 0 UNCOVERED: 0
L1D COMMIT LATE MSHR PREFETCHES: 0
L1D MPKI TOTAL: 12.4556 MSHR LATE: 1e-05 PQ LATE: 0 COMMIT LATE: 0 MISSED OPPORTUNITY: 0 UNCOVERED: 0
L1D PREFETCHES SAME FILL-ORIGIN LEVEL: 3061 DIFFERENT FILL-ORIGIN LEVEL: 7975
L1D AVERAGE MISS LATENCY: 279.132 cycles
L1D AVERAGE MISS LATENCY LOAD: 478.76 cycles
L1D AVERAGE MISS LATENCY PREFETCH: 281.382 cycles
L1D AVERAGE MSHR OCCUPANCY: 15.2946
L1D MSHR FULL: 0.937481
L1D RQ	ACCESS:   26888339	FORWARD:          0	MERGED:   11298697	TO_CACHE:   15589642
L1D WQ	ACCESS:   39438840	FORWARD:          0	MERGED:      54989	TO_CACHE:   39383851
L1D PQ	ACCESS:      23216	FORWARD:          0	MERGED:      11114	TO_CACHE:      12102

L1D UNIQUE REGIONS ACCESSED: 0
L1D REGIONS CONFLICTS: 0
L1D Cross Page Prefetch Requests: 0
L1D Same Page Prefetch Requests: 28236
L1D ROI Sum of L1D PQ occupancy: 1678682
L1D PREFETCHES PUSHED FROM L2C: 0
L1I SPEC fills:          0  NON-SPEC fills:          0
L1I Test counter :          0
L1I Leapfrog:          0
L1I MSHR merge:          0
L1I TOTAL     ACCESS:   34946889  HIT:   34946889  MISS:          0  HIT %:        100  MISS %:          0   MPKI: 0
L1I LOAD      TOTAL       ACCESS:   34946889  HIT:   34946889  MISS:          0  HIT %:        100  MISS %:          0   MPKI: 0
L1I LOAD      NON_SPEC    ACCESS:   34946889  HIT:   34946889  MISS:          0  HIT %:        100  MISS %:          0   MPKI: 0
L1I PREFETCH  REQUESTED:          0  ISSUED:          0  USEFUL:          0  USELESS:          0
L1I USEFUL LOAD PREFETCHES:          0 PREFETCH ISSUED TO LOWER LEVEL:          0  ACCURACY: -nan
L1I TIMELY PREFETCHES:          0 LATE PREFETCHES: 0 DROPPED PREFETCHES: 0
L1I COMMIT LATE PREFETCHES: 0 MISSED OPPORTUNITY: 0 LATE IN PQ: 0 UNCOVERED: 0
L1I COMMIT LATE MSHR PREFETCHES: 0
L1I MPKI TOTAL: 0 MSHR LATE: 0 PQ LATE: 0 COMMIT LATE: 0 MISSED OPPORTUNITY: 0 UNCOVERED: 0
L1I PREFETCHES SAME FILL-ORIGIN LEVEL: 0 DIFFERENT FILL-ORIGIN LEVEL: 0
L1I AVERAGE MISS LATENCY: -nan cycles
L1I AVERAGE MISS LATENCY LOAD: -nan cycles
L1I AVERAGE MISS LATENCY PREFETCH: -nan cycles
L1I AVERAGE MSHR OCCUPANCY: 0
L1I MSHR FULL: 0
L1I RQ	ACCESS:   51125674	FORWARD:          0	MERGED:   16178784	TO_CACHE:   34946890

BTB SPEC fills:          0  NON-SPEC fills:          0
BTB Test counter :          0
BTB Leapfrog:          0
BTB MSHR merge:          0
BTB TOTAL     ACCESS:    3614433  HIT:    3614427  MISS:          6  HIT %:    99.9998  MISS %: 0.000166001   MPKI: 3e-05
BTB BRANCH_DIRECT_JUMP	ACCESS:     592790  HIT:     592789  MISS:          1
BTB BRANCH_INDIRECT	ACCESS:          0  HIT:          0  MISS:          0
BTB BRANCH_CONDITIONAL	ACCESS:    3021643  HIT:    3021638  MISS:          5
BTB BRANCH_DIRECT_CALL	ACCESS:          0  HIT:          0  MISS:          0
BTB BRANCH_INDIRECT_CALL	ACCESS:          0  HIT:          0  MISS:          0
BTB BRANCH_RETURN	ACCESS:          0  HIT:          0  MISS:          0
BTB BRANCH_OTHER ACCESS:          0  HIT:          0  MISS:          0

L2C SPEC fills:          0  NON-SPEC fills:      22508
L2C Test counter :    2377543
L2C Leapfrog:          0
L2C MSHR merge:          4
L2C TOTAL     ACCESS:   32773543  HIT:   20645690  MISS:   12127853  HIT %:     62.995  MISS %:     37.005   MPKI: 60.6393
L2C LOAD      TOTAL       ACCESS:    2485460  HIT:      59415  MISS:    2426045  HIT %:     2.3905  MISS %:    97.6095   MPKI: 12.1302
L2C LOAD      NON_SPEC    ACCESS:      22922  HIT:        414  MISS:      22508  HIT %:    1.80613  MISS %:    98.1939   MPKI: 0.11254
L2C LOAD      SPEC        ACCESS:    2462538  HIT:      59001  MISS:    2403537  HIT %:    2.39594  MISS %:    97.6041   MPKI: 12.0177
L2C RFO       NON_SPEC    ACCESS:   13438492  HIT:    6140690  MISS:    7297802  HIT %:    45.6948  MISS %:    54.3052   MPKI: 36.489
L2C PREFETCH  NON_SPEC    ACCESS:      10422  HIT:       4254  MISS:       6168  HIT %:    40.8175  MISS %:    59.1825   MPKI: 0.03084
L2C WRITEBACK NON_SPEC    ACCESS:   13440730  HIT:   13440236  MISS:        494  HIT %:    99.9963  MISS %:  0.0036754   MPKI: 0.00247
L2C CLEAN_EVICTION NON_SPEC    ACCESS:    2389327  HIT:     269096  MISS:    2120231  HIT %:    11.2624  MISS %:    88.7376   MPKI: 10.6012
L2C COMMIT LOAD NON_SPEC    ACCESS:     259018  HIT:        842  MISS:     258176  HIT %:   0.325074  MISS %:    99.6749   MPKI: 1.29088
L2C LOAD TRANSLATION NON_SPEC    ACCESS:     750094  HIT:     731157  MISS:      18937  HIT %:    97.4754  MISS %:    2.52462   MPKI: 0.094685
L2C PREFETCH  REQUESTED:          0  ISSUED:          0  USEFUL:       4943  USELESS:       1223
L2C USEFUL LOAD PREFETCHES:       4943 PREFETCH ISSUED TO LOWER LEVEL:       6201  ACCURACY: 79.7129
L2C TIMELY PREFETCHES:       4943 LATE PREFETCHES: 33 DROPPED PREFETCHES: 0
L2C COMMIT LATE PREFETCHES: 0 MISSED OPPORTUNITY: 0 LATE IN PQ: 0 UNCOVERED: 0
L2C COMMIT LATE MSHR PREFETCHES: 0
L2C MPKI TOTAL: 12.1302 MSHR LATE: 0.000165 PQ LATE: 0 COMMIT LATE: 0 MISSED OPPORTUNITY: 0 UNCOVERED: 0
L2C PREFETCHES SAME FILL-ORIGIN LEVEL: 4383 DIFFERENT FILL-ORIGIN LEVEL: 0
L2C AVERAGE MISS LATENCY: 398.895 cycles
L2C AVERAGE MISS LATENCY LOAD: 423.503 cycles
L2C AVERAGE MISS LATENCY PREFETCH: 608.403 cycles
L2C AVERAGE MSHR OCCUPANCY: 9.14055
L2C MSHR FULL: 5.96431e-05
L2C RQ	ACCESS:   16933318	FORWARD:          0	MERGED:          0	TO_CACHE:   16933064
L2C WQ	ACCESS:   15830077	FORWARD:        254	MERGED:         19	TO_CACHE:   15830058
L2C PQ	ACCESS:      11034	FORWARD:          0	MERGED:          4	TO_CACHE:      11030

L2C Instructions Evicting Data 0
L2C Translations Evicting Data 18889
L2C Data Evicting Data 7570340
L2C Instructions Evicting Instructions 0
L2C Translations Evicting Instructions 0
L2C Data Evicting Instructions 0
L2C Instructions Evicting Translations 0
L2C Translations Evicting Translations 48
L2C Data Evicting Translations 14314
L2C Dense regions hint from L2: 0
PSCL5 SPEC fills:          0  NON-SPEC fills:          0
PSCL5 Test counter :          0
PSCL5 Leapfrog:          0
PSCL5 MSHR merge:          0
PSCL5 TOTAL     ACCESS:          0  HIT:          0  MISS:          0  HIT %:       -nan  MISS %:       -nan   MPKI: 0
PSCL5 PREFETCH  REQUESTED:          0  ISSUED:          0  USEFUL:          0  USELESS:          0
PSCL5 USEFUL LOAD PREFETCHES:          0 PREFETCH ISSUED TO LOWER LEVEL:          0  ACCURACY: -nan
PSCL5 TIMELY PREFETCHES:          0 LATE PREFETCHES: 0 DROPPED PREFETCHES: 0
PSCL5 COMMIT LATE PREFETCHES: 0 MISSED OPPORTUNITY: 0 LATE IN PQ: 0 UNCOVERED: 0
PSCL5 COMMIT LATE MSHR PREFETCHES: 0
PSCL5 MPKI TOTAL: 0 MSHR LATE: 0 PQ LATE: 0 COMMIT LATE: 0 MISSED OPPORTUNITY: 0 UNCOVERED: 0
PSCL5 PREFETCHES SAME FILL-ORIGIN LEVEL: 0 DIFFERENT FILL-ORIGIN LEVEL: 0

PSCL4 SPEC fills:          0  NON-SPEC fills:          0
PSCL4 Test counter :          0
PSCL4 Leapfrog:          0
PSCL4 MSHR merge:          0
PSCL4 TOTAL     ACCESS:          0  HIT:          0  MISS:          0  HIT %:       -nan  MISS %:       -nan   MPKI: 0
PSCL4 PREFETCH  REQUESTED:          0  ISSUED:          0  USEFUL:          0  USELESS:          0
PSCL4 USEFUL LOAD PREFETCHES:          0 PREFETCH ISSUED TO LOWER LEVEL:          0  ACCURACY: -nan
PSCL4 TIMELY PREFETCHES:          0 LATE PREFETCHES: 0 DROPPED PREFETCHES: 0
PSCL4 COMMIT LATE PREFETCHES: 0 MISSED OPPORTUNITY: 0 LATE IN PQ: 0 UNCOVERED: 0
PSCL4 COMMIT LATE MSHR PREFETCHES: 0
PSCL4 MPKI TOTAL: 0 MSHR LATE: 0 PQ LATE: 0 COMMIT LATE: 0 MISSED OPPORTUNITY: 0 UNCOVERED: 0
PSCL4 PREFETCHES SAME FILL-ORIGIN LEVEL: 0 DIFFERENT FILL-ORIGIN LEVEL: 0

PSCL3 SPEC fills:          0  NON-SPEC fills:          0
PSCL3 Test counter :          0
PSCL3 Leapfrog:          0
PSCL3 MSHR merge:          0
PSCL3 TOTAL     ACCESS:          0  HIT:          0  MISS:          0  HIT %:       -nan  MISS %:       -nan   MPKI: 0
PSCL3 PREFETCH  REQUESTED:          0  ISSUED:          0  USEFUL:          0  USELESS:          0
PSCL3 USEFUL LOAD PREFETCHES:          0 PREFETCH ISSUED TO LOWER LEVEL:          0  ACCURACY: -nan
PSCL3 TIMELY PREFETCHES:          0 LATE PREFETCHES: 0 DROPPED PREFETCHES: 0
PSCL3 COMMIT LATE PREFETCHES: 0 MISSED OPPORTUNITY: 0 LATE IN PQ: 0 UNCOVERED: 0
PSCL3 COMMIT LATE MSHR PREFETCHES: 0
PSCL3 MPKI TOTAL: 0 MSHR LATE: 0 PQ LATE: 0 COMMIT LATE: 0 MISSED OPPORTUNITY: 0 UNCOVERED: 0
PSCL3 PREFETCHES SAME FILL-ORIGIN LEVEL: 0 DIFFERENT FILL-ORIGIN LEVEL: 0

PSCL2 SPEC fills:          0  NON-SPEC fills:          0
PSCL2 Test counter :          0
PSCL2 Leapfrog:          0
PSCL2 MSHR merge:          0
PSCL2 TOTAL     ACCESS:          0  HIT:          0  MISS:          0  HIT %:       -nan  MISS %:       -nan   MPKI: 0
PSCL2 PREFETCH  REQUESTED:          0  ISSUED:          0  USEFUL:          0  USELESS:          0
PSCL2 USEFUL LOAD PREFETCHES:          0 PREFETCH ISSUED TO LOWER LEVEL:          0  ACCURACY: -nan
PSCL2 TIMELY PREFETCHES:          0 LATE PREFETCHES: 0 DROPPED PREFETCHES: 0
PSCL2 COMMIT LATE PREFETCHES: 0 MISSED OPPORTUNITY: 0 LATE IN PQ: 0 UNCOVERED: 0
PSCL2 COMMIT LATE MSHR PREFETCHES: 0
PSCL2 MPKI TOTAL: 0 MSHR LATE: 0 PQ LATE: 0 COMMIT LATE: 0 MISSED OPPORTUNITY: 0 UNCOVERED: 0
PSCL2 PREFETCHES SAME FILL-ORIGIN LEVEL: 0 DIFFERENT FILL-ORIGIN LEVEL: 0

LLC SPEC fills:          0  NON-SPEC fills:      22489
LLC Test counter :    2372276
LLC Leapfrog:          0
LLC MSHR merge:          0
LLC TOTAL     ACCESS:   19689084  HIT:    7670528  MISS:   12018556  HIT %:    38.9583  MISS %:    61.0417   MPKI: 60.0928
LLC LOAD      TOTAL       ACCESS:    2426038  HIT:       2482  MISS:    2423556  HIT %:   0.102307  MISS %:    99.8977   MPKI: 12.1178
LLC LOAD      NON_SPEC    ACCESS:      22508  HIT:         19  MISS:      22489  HIT %:  0.0844144  MISS %:    99.9156   MPKI: 0.112445
LLC LOAD      SPEC        ACCESS:    2403530  HIT:       2463  MISS:    2401067  HIT %:   0.102474  MISS %:    99.8975   MPKI: 12.0053
LLC RFO       NON_SPEC    ACCESS:    7297773  HIT:     102319  MISS:    7195454  HIT %:    1.40206  MISS %:    98.5979   MPKI: 35.9773
LLC PREFETCH  NON_SPEC    ACCESS:       6201  HIT:         78  MISS:       6123  HIT %:    1.25786  MISS %:    98.7421   MPKI: 0.030615
LLC WRITEBACK NON_SPEC    ACCESS:    7304416  HIT:    7304022  MISS:        394  HIT %:    99.9946  MISS %:   0.005394   MPKI: 0.00197
LLC CLEAN_EVICTION NON_SPEC    ACCESS:    2377543  HIT:     261622  MISS:    2115921  HIT %:    11.0039  MISS %:    88.9961   MPKI: 10.5796
LLC COMMIT LOAD NON_SPEC    ACCESS:     258176  HIT:          5  MISS:     258171  HIT %: 0.00193666  MISS %:    99.9981   MPKI: 1.29085
LLC LOAD TRANSLATION NON_SPEC    ACCESS:      18937  HIT:          0  MISS:      18937  HIT %:          0  MISS %:        100   MPKI: 0.094685
LLC PREFETCH  REQUESTED:          0  ISSUED:          0  USEFUL:        102  USELESS:       5977
LLC USEFUL LOAD PREFETCHES:        102 PREFETCH ISSUED TO LOWER LEVEL:       6123  ACCURACY: 1.66585
LLC TIMELY PREFETCHES:        102 LATE PREFETCHES: 0 DROPPED PREFETCHES: 0
LLC COMMIT LATE PREFETCHES: 0 MISSED OPPORTUNITY: 0 LATE IN PQ: 0 UNCOVERED: 0
LLC COMMIT LATE MSHR PREFETCHES: 0
LLC MPKI TOTAL: 12.1178 MSHR LATE: 0 PQ LATE: 0 COMMIT LATE: 0 MISSED OPPORTUNITY: 0 UNCOVERED: 0
LLC PREFETCHES SAME FILL-ORIGIN LEVEL: 0 DIFFERENT FILL-ORIGIN LEVEL: 0
LLC AVERAGE MISS LATENCY: 378.927 cycles
LLC AVERAGE MISS LATENCY LOAD: 402.437 cycles
LLC AVERAGE MISS LATENCY PREFETCH: 587.107 cycles
LLC AVERAGE MSHR OCCUPANCY: 8.49873
LLC MSHR FULL: 0
LLC RQ	ACCESS:   10000927	FORWARD:          0	MERGED:          0	TO_CACHE:   10000924
LLC WQ	ACCESS:    9681959	FORWARD:          3	MERGED:          0	TO_CACHE:    9681959
LLC PQ	ACCESS:       6201	FORWARD:          0	MERGED:          0	TO_CACHE:       6201

LLC Dense regions hint to LLC: 0

RAW hits: 4760392
Loads Generated: 52249206
Loads sent to L1D: 47488814
Stores Generated: 36967893
Stores sent to L1D: 36967904
Major fault: 0 Minor fault: 96698
Allocated PAGES: 96698
Total Load insts: 59011939
Total Non-spec loads: 2135823
Percentage of speculative loads: 96.3807

LeapFrogging counter: 20679840
Commit hits: 11596370 miss: 34156621
Commit hit %: 25.3456 miss %: 74.6544
Commits not translated: 0
Loads retired: 2485665
Stores retired: 36967904
Cache fills: 2485665
L1D response latency: 478.76 cycles
Load retirement latency: 841.189 cycles
OOO test counter: 0
Discarded buffer inserts: 11596370 hits: 297482 hit %: 2.5653
Speculative prefetch buffer size: 0
CPU 0 L1D PC-based stride prefetcher final stats
Degree: 3

DRAM Statistics
 CHANNEL 0
 RQ ROW_BUFFER_HIT:     537424  ROW_BUFFER_MISS:    9364817
 DBUS_CONGESTED:         21
 WQ ROW_BUFFER_HIT:    2286326  ROW_BUFFER_MISS:    7288883  FULL:     101855

 AVG_CONGESTED_CYCLE: 6
 All warmup complete: 2
Channel 0 Bank busy for read cycles: 0
Channel 0 Bank busy for write cycles: 0
Channel 0
Rank 0
0banks busy for read cycles: 45497356
0banks busy for write cycles: 41409
1banks busy for read cycles: 32414531
1banks busy for write cycles: 4756417
2banks busy for read cycles: 16315863
2banks busy for write cycles: 3838900
3banks busy for read cycles: 15836195
3banks busy for write cycles: 3570717
4banks busy for read cycles: 57815668
4banks busy for write cycles: 3523958
5banks busy for read cycles: 57442034
5banks busy for write cycles: 3937524
6banks busy for read cycles: 47651572
6banks busy for write cycles: 4337654
7banks busy for read cycles: 49799409
7banks busy for write cycles: 14807058
8banks busy for read cycles: 39264496
8banks busy for write cycles: 172648116

CPU 0 Branch Prediction Accuracy: 97.0917% MPKI: 0.525585 Average ROB Occupancy at Mispredict: 279.692
Branch types
NOT_BRANCH: 196385546 98.1928%
BRANCH_DIRECT_JUMP: 592790 0.296395%
BRANCH_INDIRECT: 0 0%
BRANCH_CONDITIONAL: 3021643 1.51082%
BRANCH_DIRECT_CALL: 0 0%
BRANCH_INDIRECT_CALL: 0 0%
BRANCH_RETURN: 0 0%
BRANCH_OTHER: 0 0%

DRAM PAGES: 1048576
Allocated PAGES: 96698
