
*** ChampSim Multicore Out-of-Order Simulator ***

Warmup Instructions: 50000000
Simulation Instructions: 200000000
Number of CPUs: 1
LLC sets: 2048
LLC ways: 16
L0D sets: 16
L0D ways: 2
ROB size: 352
LQ size: 128
SQ size: 72
Secure Berti: OFF
Berti: OFF
Berti Fill: OFF
On commit prefetching: ON
Hit-based filter: ON
Time-guarding: ON
Free-slotting: ON
Leap-frogging: ON
Train prefetcher on L0D bypass: OFF
No translation penalty for prefetchers: OFF
Prefetch to L0D only: OFF
Prefetch to L1D only: OFF
Clean evictions: ON
Commit loads: ON
Commit write: ON
Fill commit loads to L2C, LLC: ON
DRAM IO FREQUENCY: 6400
ROB SIZE: 352
Off-chip DRAM Size: 4096 MB Channels: 1 Width: 64-bit Data Rate: 6400 MT/s
CPU 0 runs /home/sumon/secure_berti/GhostMinion/../../traces/spec/619.lbm_s-2677B.champsimtrace.xz
.xz
BTB has LRU replacement policy
ITLB has LRU replacement policy
DTLB has LRU replacement policy
STLB has LRU replacement policy
L1I has LRU replacement policy
L0D has LRU replacement policy
CPU 0 L1D IP-based stride prefetcher
L1D has LRU replacement policy
L2C has LRU replacement policy
LLC has LRU replacement policy
Heartbeat CPU 0 instructions: 10000001 cycles: 3060248 heartbeat IPC: 3.26771 cumulative IPC: 3.26771 (Simulation time: 0 hr 0 min 37 sec) 
Heartbeat CPU 0 instructions: 20000003 cycles: 6109118 heartbeat IPC: 3.2799 cumulative IPC: 3.2738 (Simulation time: 0 hr 1 min 13 sec) 
Heartbeat CPU 0 instructions: 30000000 cycles: 9165820 heartbeat IPC: 3.2715 cumulative IPC: 3.27303 (Simulation time: 0 hr 1 min 50 sec) 
Heartbeat CPU 0 instructions: 40000000 cycles: 12220786 heartbeat IPC: 3.27336 cumulative IPC: 3.27311 (Simulation time: 0 hr 2 min 27 sec) 
Heartbeat CPU 0 instructions: 50000003 cycles: 15282182 heartbeat IPC: 3.26648 cumulative IPC: 3.27178 (Simulation time: 0 hr 3 min 4 sec) 

Warmup complete CPU 0 instructions: 50000003 cycles: 15282182 (Simulation time: 0 hr 3 min 4 sec) 

Heartbeat CPU 0 instructions: 60000001 cycles: 43912697 heartbeat IPC: 0.349278 cumulative IPC: 0.349278 (Simulation time: 0 hr 4 min 10 sec) 
Heartbeat CPU 0 instructions: 70000002 cycles: 72231627 heartbeat IPC: 0.353121 cumulative IPC: 0.351189 (Simulation time: 0 hr 5 min 13 sec) 
Heartbeat CPU 0 instructions: 80000001 cycles: 100585331 heartbeat IPC: 0.352688 cumulative IPC: 0.351687 (Simulation time: 0 hr 6 min 17 sec) 
Heartbeat CPU 0 instructions: 90000000 cycles: 129609394 heartbeat IPC: 0.344542 cumulative IPC: 0.349873 (Simulation time: 0 hr 7 min 21 sec) 
Heartbeat CPU 0 instructions: 100000000 cycles: 158353293 heartbeat IPC: 0.3479 cumulative IPC: 0.349477 (Simulation time: 0 hr 8 min 26 sec) 
Heartbeat CPU 0 instructions: 110000000 cycles: 187205135 heartbeat IPC: 0.346598 cumulative IPC: 0.348994 (Simulation time: 0 hr 9 min 30 sec) 
Heartbeat CPU 0 instructions: 120000000 cycles: 215901502 heartbeat IPC: 0.348476 cumulative IPC: 0.34892 (Simulation time: 0 hr 10 min 34 sec) 
Heartbeat CPU 0 instructions: 130000001 cycles: 244266798 heartbeat IPC: 0.352544 cumulative IPC: 0.349368 (Simulation time: 0 hr 11 min 37 sec) 
Heartbeat CPU 0 instructions: 140000001 cycles: 272966325 heartbeat IPC: 0.348438 cumulative IPC: 0.349265 (Simulation time: 0 hr 12 min 41 sec) 
Heartbeat CPU 0 instructions: 150000002 cycles: 301773094 heartbeat IPC: 0.347141 cumulative IPC: 0.349051 (Simulation time: 0 hr 13 min 44 sec) 
Heartbeat CPU 0 instructions: 160000002 cycles: 330117521 heartbeat IPC: 0.352803 cumulative IPC: 0.349389 (Simulation time: 0 hr 14 min 46 sec) 
Heartbeat CPU 0 instructions: 170000002 cycles: 358024174 heartbeat IPC: 0.358337 cumulative IPC: 0.350118 (Simulation time: 0 hr 15 min 48 sec) 
Heartbeat CPU 0 instructions: 180000000 cycles: 385516364 heartbeat IPC: 0.36374 cumulative IPC: 0.351129 (Simulation time: 0 hr 16 min 48 sec) 
Heartbeat CPU 0 instructions: 190000001 cycles: 413959072 heartbeat IPC: 0.351584 cumulative IPC: 0.351162 (Simulation time: 0 hr 17 min 49 sec) 
Heartbeat CPU 0 instructions: 200000000 cycles: 441900202 heartbeat IPC: 0.357895 cumulative IPC: 0.351603 (Simulation time: 0 hr 18 min 49 sec) 
Heartbeat CPU 0 instructions: 210000000 cycles: 469899384 heartbeat IPC: 0.357153 cumulative IPC: 0.351944 (Simulation time: 0 hr 19 min 49 sec) 
Heartbeat CPU 0 instructions: 220000000 cycles: 499013087 heartbeat IPC: 0.343481 cumulative IPC: 0.351435 (Simulation time: 0 hr 20 min 50 sec) 
Heartbeat CPU 0 instructions: 230000000 cycles: 528414669 heartbeat IPC: 0.340118 cumulative IPC: 0.350787 (Simulation time: 0 hr 21 min 50 sec) 
Heartbeat CPU 0 instructions: 240000002 cycles: 558803024 heartbeat IPC: 0.329073 cumulative IPC: 0.349573 (Simulation time: 0 hr 22 min 50 sec) 
Heartbeat CPU 0 instructions: 250000003 cycles: 588620369 heartbeat IPC: 0.335375 cumulative IPC: 0.348834 (Simulation time: 0 hr 23 min 50 sec) 
Finished CPU 0 instructions: 200000000 cycles: 573338187 cumulative IPC: 0.348834 (Simulation time: 0 hr 23 min 50 sec) 
 Instruction ID: 250000377

ChampSim completed all CPUs

Region of Interest Statistics

CPU 0 cumulative IPC: 0.348834 instructions: 200000000 cycles: 573338187
ITLB SPEC fills:          0  NON-SPEC fills:          0
ITLB Test counter :          0
ITLB Leapfrog:          0
ITLB MSHR merge:          0
ITLB TOTAL     ACCESS:   27155343  HIT:   27155343  MISS:          0  HIT %:        100  MISS %:          0   MPKI: 0
ITLB LOAD TRANSLATION NON_SPEC    ACCESS:   27155343  HIT:   27155343  MISS:          0  HIT %:        100  MISS %:          0   MPKI: 0
ITLB PREFETCH  REQUESTED:          0  ISSUED:          0  USEFUL:          0  USELESS:          0
ITLB USEFUL LOAD PREFETCHES:          0 PREFETCH ISSUED TO LOWER LEVEL:          0  ACCURACY: -nan
ITLB TIMELY PREFETCHES:          0 LATE PREFETCHES: 0 DROPPED PREFETCHES: 0
ITLB COMMIT LATE PREFETCHES: 0 MISSED OPPORTUNITY: 0 LATE IN PQ: 0 UNCOVERED: 0
ITLB COMMIT LATE MSHR PREFETCHES: 0
ITLB MPKI TOTAL: 0 MSHR LATE: 0 PQ LATE: 0 COMMIT LATE: 0 MISSED OPPORTUNITY: 0 UNCOVERED: 0
ITLB PREFETCHES SAME FILL-ORIGIN LEVEL: 0 DIFFERENT FILL-ORIGIN LEVEL: 0
ITLB AVERAGE MISS LATENCY: -nan cycles
ITLB AVERAGE MISS LATENCY LOAD: -nan cycles
ITLB AVERAGE MISS LATENCY PREFETCH: -nan cycles
ITLB AVERAGE MSHR OCCUPANCY: 0
ITLB MSHR FULL: 0
ITLB RQ	ACCESS:   34980353	FORWARD:          0	MERGED:    7825011	TO_CACHE:   27155342

DTLB SPEC fills:          0  NON-SPEC fills:          0
DTLB Test counter :          0
DTLB Leapfrog:          0
DTLB MSHR merge:          0
DTLB TOTAL     ACCESS:   38827660  HIT:   38551613  MISS:     276047  HIT %:     99.289  MISS %:   0.710955   MPKI: 1.38024
DTLB LOAD TRANSLATION NON_SPEC    ACCESS:   38827660  HIT:   38551613  MISS:     276047  HIT %:     99.289  MISS %:   0.710955   MPKI: 1.38024
DTLB PREFETCH  REQUESTED:          0  ISSUED:          0  USEFUL:          0  USELESS:          0
DTLB USEFUL LOAD PREFETCHES:          0 PREFETCH ISSUED TO LOWER LEVEL:          0  ACCURACY: -nan
DTLB TIMELY PREFETCHES:          0 LATE PREFETCHES: 0 DROPPED PREFETCHES: 0
DTLB COMMIT LATE PREFETCHES: 0 MISSED OPPORTUNITY: 0 LATE IN PQ: 0 UNCOVERED: 0
DTLB COMMIT LATE MSHR PREFETCHES: 0
DTLB MPKI TOTAL: 0 MSHR LATE: 0 PQ LATE: 0 COMMIT LATE: 0 MISSED OPPORTUNITY: 0 UNCOVERED: 0
DTLB PREFETCHES SAME FILL-ORIGIN LEVEL: 0 DIFFERENT FILL-ORIGIN LEVEL: 0
DTLB AVERAGE MISS LATENCY: 131.083 cycles
DTLB AVERAGE MISS LATENCY LOAD: -nan cycles
DTLB AVERAGE MISS LATENCY PREFETCH: -nan cycles
DTLB AVERAGE MSHR OCCUPANCY: 0.0870927
DTLB MSHR FULL: 0
DTLB RQ	ACCESS:   61660887	FORWARD:          0	MERGED:   22698481	TO_CACHE:   38962406

STLB SPEC fills:          0  NON-SPEC fills:          0
STLB Test counter :          0
STLB Leapfrog:          0
STLB MSHR merge:          0
STLB TOTAL     ACCESS:     282161  HIT:     132377  MISS:     149784  HIT %:    46.9154  MISS %:    53.0846   MPKI: 0.74892
STLB LOAD TRANSLATION NON_SPEC    ACCESS:     276047  HIT:     126263  MISS:     149784  HIT %:    45.7397  MISS %:    54.2603   MPKI: 0.74892
STLB TRANSLATION FROM L1D PREFETCHER NON_SPEC    ACCESS:       6114  HIT:       6114  MISS:          0  HIT %:        100  MISS %:          0   MPKI: 0
STLB PREFETCH  REQUESTED:          0  ISSUED:          0  USEFUL:          0  USELESS:          0
STLB USEFUL LOAD PREFETCHES:          0 PREFETCH ISSUED TO LOWER LEVEL:          0  ACCURACY: -nan
STLB TIMELY PREFETCHES:          0 LATE PREFETCHES: 0 DROPPED PREFETCHES: 0
STLB COMMIT LATE PREFETCHES: 0 MISSED OPPORTUNITY: 0 LATE IN PQ: 0 UNCOVERED: 0
STLB COMMIT LATE MSHR PREFETCHES: 0
STLB MPKI TOTAL: 0 MSHR LATE: 0 PQ LATE: 0 COMMIT LATE: 0 MISSED OPPORTUNITY: 0 UNCOVERED: 0
STLB PREFETCHES SAME FILL-ORIGIN LEVEL: 0 DIFFERENT FILL-ORIGIN LEVEL: 0
STLB AVERAGE MISS LATENCY: 224.857 cycles
STLB AVERAGE MISS LATENCY LOAD: -nan cycles
STLB AVERAGE MISS LATENCY PREFETCH: -nan cycles
STLB AVERAGE MSHR OCCUPANCY: 0.158002
STLB MSHR FULL: 0
STLB RQ	ACCESS:     287061	FORWARD:          0	MERGED:       4893	TO_CACHE:     282168

STLB Hit, L1D data hit: 0
STLB Hit, L2C data hit: 0
STLB Hit, LLC data hit: 0
STLB Hit, LLC data miss: 0
STLB STLB hints to L2: 0
L0D SPEC fills:   11898631  NON-SPEC fills:          0
L0D TimeGuard Request with older TS:     236226 Restricted eviction:      53417 read:    1215758
L0D Test counter :          0
L0D Leapfrog:          0
L0D MSHR merge:    4864854
L0D TOTAL     ACCESS:   19851100  HIT:    6694331  MISS:   13156769  HIT %:    33.7227  MISS %:    66.2773   MPKI: 65.7838
L0D LOAD      TOTAL       ACCESS:   19851100  HIT:    6694331  MISS:   13156769  HIT %:    33.7227  MISS %:    66.2773   MPKI: 65.7838
L0D LOAD      NON_SPEC    ACCESS:    1706032  HIT:     501311  MISS:    1204721  HIT %:    29.3846  MISS %:    70.6154   MPKI: 6.0236
L0D LOAD      SPEC        ACCESS:   18145068  HIT:    6193020  MISS:   11952048  HIT %:    34.1306  MISS %:    65.8694   MPKI: 59.7602
L0D PREFETCH  REQUESTED:          0  ISSUED:          0  USEFUL:          0  USELESS:          0
L0D USEFUL LOAD PREFETCHES:          0 PREFETCH ISSUED TO LOWER LEVEL:          0  ACCURACY: -nan
L0D TIMELY PREFETCHES:          0 LATE PREFETCHES: 0 DROPPED PREFETCHES: 0
L0D COMMIT LATE PREFETCHES: 0 MISSED OPPORTUNITY: 0 LATE IN PQ: 0 UNCOVERED: 0
L0D COMMIT LATE MSHR PREFETCHES: 0
L0D MPKI TOTAL: 90.1081 MSHR LATE: 0 PQ LATE: 0 COMMIT LATE: 0 MISSED OPPORTUNITY: 0 UNCOVERED: 0
L0D PREFETCHES SAME FILL-ORIGIN LEVEL: 0 DIFFERENT FILL-ORIGIN LEVEL: 0
L0D AVERAGE MISS LATENCY: 127.631 cycles
L0D AVERAGE MISS LATENCY LOAD: 127.631 cycles
L0D AVERAGE MISS LATENCY PREFETCH: -nan cycles
L0D AVERAGE MSHR OCCUPANCY: 2.14557
L0D MSHR FULL: 0.0773234
L0D RQ	ACCESS:   47494794	FORWARD:          0	MERGED:   22778844	TO_CACHE:   24715950
L0D WQ	ACCESS:   36944937	FORWARD:          0	MERGED:          0	TO_CACHE:   36944937

L1D SPEC fills:          0  NON-SPEC fills:      21539
L1D Test counter :    2385756
L1D Leapfrog:          0
L1D MSHR merge:       5631
L1D TOTAL     ACCESS:   55027863  HIT:   36469612  MISS:   18558251  HIT %:    66.2748  MISS %:    33.7252   MPKI: 92.7913
L1D LOAD      TOTAL       ACCESS:   13151139  HIT:   10681649  MISS:    2469490  HIT %:    81.2222  MISS %:    18.7778   MPKI: 12.3475
L1D LOAD      NON_SPEC    ACCESS:    1202148  HIT:    1180609  MISS:      21539  HIT %:    98.2083  MISS %:    1.79171   MPKI: 0.107695
L1D LOAD      SPEC        ACCESS:   11948991  HIT:    9501040  MISS:    2447951  HIT %:    79.5133  MISS %:    20.4867   MPKI: 12.2398
L1D RFO       NON_SPEC    ACCESS:   36764283  HIT:   23349313  MISS:   13414970  HIT %:    63.5109  MISS %:    36.4891   MPKI: 67.0748
L1D PREFETCH  NON_SPEC    ACCESS:       3103  HIT:        238  MISS:       2865  HIT %:       7.67  MISS %:      92.33   MPKI: 0.014325
L1D COMMIT LOAD NON_SPEC    ACCESS:    2655156  HIT:    2397663  MISS:     257493  HIT %:    90.3022  MISS %:    9.69785   MPKI: 1.28747
L1D COMMIT WRITE NON_SPEC    ACCESS:    2454182  HIT:      40749  MISS:    2413433  HIT %:    1.66039  MISS %:    98.3396   MPKI: 12.0672
L1D PREFETCH  REQUESTED:      22505  ISSUED:      20754  USEFUL:        776  USELESS:       2089
L1D USEFUL LOAD PREFETCHES:        776 PREFETCH ISSUED TO LOWER LEVEL:      10037  ACCURACY: 7.73139
L1D TIMELY PREFETCHES:        776 LATE PREFETCHES: 2 DROPPED PREFETCHES: 0
L1D COMMIT LATE PREFETCHES: 0 MISSED OPPORTUNITY: 0 LATE IN PQ: 0 UNCOVERED: 0
L1D COMMIT LATE MSHR PREFETCHES: 0
L1D MPKI TOTAL: 12.3756 MSHR LATE: 1e-05 PQ LATE: 0 COMMIT LATE: 0 MISSED OPPORTUNITY: 0 UNCOVERED: 0
L1D PREFETCHES SAME FILL-ORIGIN LEVEL: 2874 DIFFERENT FILL-ORIGIN LEVEL: 7163
L1D AVERAGE MISS LATENCY: 278.962 cycles
L1D AVERAGE MISS LATENCY LOAD: 480.064 cycles
L1D AVERAGE MISS LATENCY PREFETCH: 287.694 cycles
L1D AVERAGE MSHR OCCUPANCY: 15.283
L1D MSHR FULL: 0.936412
L1D RQ	ACCESS:   27084130	FORWARD:          0	MERGED:   11271882	TO_CACHE:   15812247
L1D WQ	ACCESS:   39399105	FORWARD:          1	MERGED:      62639	TO_CACHE:   39336466
L1D PQ	ACCESS:      20754	FORWARD:          0	MERGED:       9740	TO_CACHE:      11014

L1D UNIQUE REGIONS ACCESSED: 0
L1D REGIONS CONFLICTS: 0
L1D Cross Page Prefetch Requests: 0
L1D Same Page Prefetch Requests: 27282
L1D ROI Sum of L1D PQ occupancy: 1778191
L1D PREFETCHES PUSHED FROM L2C: 0
L1I SPEC fills:          0  NON-SPEC fills:          0
L1I Test counter :          0
L1I Leapfrog:          0
L1I MSHR merge:          0
L1I TOTAL     ACCESS:   34980353  HIT:   34980353  MISS:          0  HIT %:        100  MISS %:          0   MPKI: 0
L1I LOAD      TOTAL       ACCESS:   34980353  HIT:   34980353  MISS:          0  HIT %:        100  MISS %:          0   MPKI: 0
L1I LOAD      NON_SPEC    ACCESS:   34980353  HIT:   34980353  MISS:          0  HIT %:        100  MISS %:          0   MPKI: 0
L1I PREFETCH  REQUESTED:          0  ISSUED:          0  USEFUL:          0  USELESS:          0
L1I USEFUL LOAD PREFETCHES:          0 PREFETCH ISSUED TO LOWER LEVEL:          0  ACCURACY: -nan
L1I TIMELY PREFETCHES:          0 LATE PREFETCHES: 0 DROPPED PREFETCHES: 0
L1I COMMIT LATE PREFETCHES: 0 MISSED OPPORTUNITY: 0 LATE IN PQ: 0 UNCOVERED: 0
L1I COMMIT LATE MSHR PREFETCHES: 0
L1I MPKI TOTAL: 0 MSHR LATE: 0 PQ LATE: 0 COMMIT LATE: 0 MISSED OPPORTUNITY: 0 UNCOVERED: 0
L1I PREFETCHES SAME FILL-ORIGIN LEVEL: 0 DIFFERENT FILL-ORIGIN LEVEL: 0
L1I AVERAGE MISS LATENCY: -nan cycles
L1I AVERAGE MISS LATENCY LOAD: -nan cycles
L1I AVERAGE MISS LATENCY PREFETCH: -nan cycles
L1I AVERAGE MSHR OCCUPANCY: 0
L1I MSHR FULL: 0
L1I RQ	ACCESS:   51128010	FORWARD:          0	MERGED:   16147657	TO_CACHE:   34980353

BTB SPEC fills:          0  NON-SPEC fills:          0
BTB Test counter :          0
BTB Leapfrog:          0
BTB MSHR merge:          0
BTB TOTAL     ACCESS:    3609719  HIT:    3609713  MISS:          6  HIT %:    99.9998  MISS %: 0.000166218   MPKI: 3e-05
BTB BRANCH_DIRECT_JUMP	ACCESS:     590927  HIT:     590926  MISS:          1
BTB BRANCH_INDIRECT	ACCESS:          0  HIT:          0  MISS:          0
BTB BRANCH_CONDITIONAL	ACCESS:    3018792  HIT:    3018787  MISS:          5
BTB BRANCH_DIRECT_CALL	ACCESS:          0  HIT:          0  MISS:          0
BTB BRANCH_INDIRECT_CALL	ACCESS:          0  HIT:          0  MISS:          0
BTB BRANCH_RETURN	ACCESS:          0  HIT:          0  MISS:          0
BTB BRANCH_OTHER ACCESS:          0  HIT:          0  MISS:          0

L2C SPEC fills:          0  NON-SPEC fills:      20607
L2C Test counter :    2377175
L2C Leapfrog:          0
L2C MSHR merge:          1
L2C TOTAL     ACCESS:   32702813  HIT:   20606241  MISS:   12096572  HIT %:    63.0106  MISS %:    36.9894   MPKI: 60.4829
L2C LOAD      TOTAL       ACCESS:    2469295  HIT:      48049  MISS:    2421246  HIT %:    1.94586  MISS %:    98.0541   MPKI: 12.1062
L2C LOAD      NON_SPEC    ACCESS:      21536  HIT:        929  MISS:      20607  HIT %:    4.31371  MISS %:    95.6863   MPKI: 0.103035
L2C LOAD      SPEC        ACCESS:    2447759  HIT:      47120  MISS:    2400639  HIT %:    1.92503  MISS %:     98.075   MPKI: 12.0032
L2C RFO       NON_SPEC    ACCESS:   13414960  HIT:    6140768  MISS:    7274192  HIT %:    45.7755  MISS %:    54.2245   MPKI: 36.371
L2C PREFETCH  NON_SPEC    ACCESS:       9471  HIT:       3687  MISS:       5784  HIT %:    38.9294  MISS %:    61.0706   MPKI: 0.02892
L2C WRITEBACK NON_SPEC    ACCESS:   13417068  HIT:   13416538  MISS:        530  HIT %:     99.996  MISS %: 0.00395019   MPKI: 0.00265
L2C CLEAN_EVICTION NON_SPEC    ACCESS:    2385752  HIT:     266440  MISS:    2119312  HIT %:     11.168  MISS %:     88.832   MPKI: 10.5966
L2C COMMIT LOAD NON_SPEC    ACCESS:     257493  HIT:        888  MISS:     256605  HIT %:   0.344864  MISS %:    99.6551   MPKI: 1.28303
L2C LOAD TRANSLATION NON_SPEC    ACCESS:     748774  HIT:     729871  MISS:      18903  HIT %:    97.4755  MISS %:    2.52453   MPKI: 0.094515
L2C PREFETCH  REQUESTED:          0  ISSUED:          0  USEFUL:       4644  USELESS:       1140
L2C USEFUL LOAD PREFETCHES:       4644 PREFETCH ISSUED TO LOWER LEVEL:       5812  ACCURACY: 79.9036
L2C TIMELY PREFETCHES:       4644 LATE PREFETCHES: 28 DROPPED PREFETCHES: 0
L2C COMMIT LATE PREFETCHES: 0 MISSED OPPORTUNITY: 0 LATE IN PQ: 0 UNCOVERED: 0
L2C COMMIT LATE MSHR PREFETCHES: 0
L2C MPKI TOTAL: 12.1062 MSHR LATE: 0.00014 PQ LATE: 0 COMMIT LATE: 0 MISSED OPPORTUNITY: 0 UNCOVERED: 0
L2C PREFETCHES SAME FILL-ORIGIN LEVEL: 4049 DIFFERENT FILL-ORIGIN LEVEL: 0
L2C AVERAGE MISS LATENCY: 398.35 cycles
L2C AVERAGE MISS LATENCY LOAD: 422.462 cycles
L2C AVERAGE MISS LATENCY PREFETCH: 598.097 cycles
L2C AVERAGE MSHR OCCUPANCY: 9.12836
L2C MSHR FULL: 2.09581e-05
L2C RQ	ACCESS:   16890719	FORWARD:          0	MERGED:          0	TO_CACHE:   16890523
L2C WQ	ACCESS:   15802824	FORWARD:        196	MERGED:          4	TO_CACHE:   15802820
L2C PQ	ACCESS:      10037	FORWARD:          0	MERGED:          3	TO_CACHE:      10034

L2C Instructions Evicting Data 0
L2C Translations Evicting Data 18818
L2C Data Evicting Data 7542786
L2C Instructions Evicting Instructions 0
L2C Translations Evicting Instructions 0
L2C Data Evicting Instructions 0
L2C Instructions Evicting Translations 0
L2C Translations Evicting Translations 85
L2C Data Evicting Translations 14402
L2C Dense regions hint from L2: 0
PSCL5 SPEC fills:          0  NON-SPEC fills:          0
PSCL5 Test counter :          0
PSCL5 Leapfrog:          0
PSCL5 MSHR merge:          0
PSCL5 TOTAL     ACCESS:          0  HIT:          0  MISS:          0  HIT %:       -nan  MISS %:       -nan   MPKI: 0
PSCL5 PREFETCH  REQUESTED:          0  ISSUED:          0  USEFUL:          0  USELESS:          0
PSCL5 USEFUL LOAD PREFETCHES:          0 PREFETCH ISSUED TO LOWER LEVEL:          0  ACCURACY: -nan
PSCL5 TIMELY PREFETCHES:          0 LATE PREFETCHES: 0 DROPPED PREFETCHES: 0
PSCL5 COMMIT LATE PREFETCHES: 0 MISSED OPPORTUNITY: 0 LATE IN PQ: 0 UNCOVERED: 0
PSCL5 COMMIT LATE MSHR PREFETCHES: 0
PSCL5 MPKI TOTAL: 0 MSHR LATE: 0 PQ LATE: 0 COMMIT LATE: 0 MISSED OPPORTUNITY: 0 UNCOVERED: 0
PSCL5 PREFETCHES SAME FILL-ORIGIN LEVEL: 0 DIFFERENT FILL-ORIGIN LEVEL: 0

PSCL4 SPEC fills:          0  NON-SPEC fills:          0
PSCL4 Test counter :          0
PSCL4 Leapfrog:          0
PSCL4 MSHR merge:          0
PSCL4 TOTAL     ACCESS:          0  HIT:          0  MISS:          0  HIT %:       -nan  MISS %:       -nan   MPKI: 0
PSCL4 PREFETCH  REQUESTED:          0  ISSUED:          0  USEFUL:          0  USELESS:          0
PSCL4 USEFUL LOAD PREFETCHES:          0 PREFETCH ISSUED TO LOWER LEVEL:          0  ACCURACY: -nan
PSCL4 TIMELY PREFETCHES:          0 LATE PREFETCHES: 0 DROPPED PREFETCHES: 0
PSCL4 COMMIT LATE PREFETCHES: 0 MISSED OPPORTUNITY: 0 LATE IN PQ: 0 UNCOVERED: 0
PSCL4 COMMIT LATE MSHR PREFETCHES: 0
PSCL4 MPKI TOTAL: 0 MSHR LATE: 0 PQ LATE: 0 COMMIT LATE: 0 MISSED OPPORTUNITY: 0 UNCOVERED: 0
PSCL4 PREFETCHES SAME FILL-ORIGIN LEVEL: 0 DIFFERENT FILL-ORIGIN LEVEL: 0

PSCL3 SPEC fills:          0  NON-SPEC fills:          0
PSCL3 Test counter :          0
PSCL3 Leapfrog:          0
PSCL3 MSHR merge:          0
PSCL3 TOTAL     ACCESS:          0  HIT:          0  MISS:          0  HIT %:       -nan  MISS %:       -nan   MPKI: 0
PSCL3 PREFETCH  REQUESTED:          0  ISSUED:          0  USEFUL:          0  USELESS:          0
PSCL3 USEFUL LOAD PREFETCHES:          0 PREFETCH ISSUED TO LOWER LEVEL:          0  ACCURACY: -nan
PSCL3 TIMELY PREFETCHES:          0 LATE PREFETCHES: 0 DROPPED PREFETCHES: 0
PSCL3 COMMIT LATE PREFETCHES: 0 MISSED OPPORTUNITY: 0 LATE IN PQ: 0 UNCOVERED: 0
PSCL3 COMMIT LATE MSHR PREFETCHES: 0
PSCL3 MPKI TOTAL: 0 MSHR LATE: 0 PQ LATE: 0 COMMIT LATE: 0 MISSED OPPORTUNITY: 0 UNCOVERED: 0
PSCL3 PREFETCHES SAME FILL-ORIGIN LEVEL: 0 DIFFERENT FILL-ORIGIN LEVEL: 0

PSCL2 SPEC fills:          0  NON-SPEC fills:          0
PSCL2 Test counter :          0
PSCL2 Leapfrog:          0
PSCL2 MSHR merge:          0
PSCL2 TOTAL     ACCESS:          0  HIT:          0  MISS:          0  HIT %:       -nan  MISS %:       -nan   MPKI: 0
PSCL2 PREFETCH  REQUESTED:          0  ISSUED:          0  USEFUL:          0  USELESS:          0
PSCL2 USEFUL LOAD PREFETCHES:          0 PREFETCH ISSUED TO LOWER LEVEL:          0  ACCURACY: -nan
PSCL2 TIMELY PREFETCHES:          0 LATE PREFETCHES: 0 DROPPED PREFETCHES: 0
PSCL2 COMMIT LATE PREFETCHES: 0 MISSED OPPORTUNITY: 0 LATE IN PQ: 0 UNCOVERED: 0
PSCL2 COMMIT LATE MSHR PREFETCHES: 0
PSCL2 MPKI TOTAL: 0 MSHR LATE: 0 PQ LATE: 0 COMMIT LATE: 0 MISSED OPPORTUNITY: 0 UNCOVERED: 0
PSCL2 PREFETCHES SAME FILL-ORIGIN LEVEL: 0 DIFFERENT FILL-ORIGIN LEVEL: 0

LLC SPEC fills:          0  NON-SPEC fills:      20534
LLC Test counter :    2376923
LLC Leapfrog:          0
LLC MSHR merge:          0
LLC TOTAL     ACCESS:   19632286  HIT:    7631143  MISS:   12001143  HIT %:    38.8704  MISS %:    61.1296   MPKI: 60.0057
LLC LOAD      TOTAL       ACCESS:    2421240  HIT:       2140  MISS:    2419100  HIT %:  0.0883845  MISS %:    99.9116   MPKI: 12.0955
LLC LOAD      NON_SPEC    ACCESS:      20606  HIT:         72  MISS:      20534  HIT %:   0.349413  MISS %:    99.6506   MPKI: 0.10267
LLC LOAD      SPEC        ACCESS:    2400634  HIT:       2068  MISS:    2398566  HIT %:  0.0861439  MISS %:    99.9139   MPKI: 11.9928
LLC RFO       NON_SPEC    ACCESS:    7274163  HIT:      91150  MISS:    7183013  HIT %:    1.25307  MISS %:    98.7469   MPKI: 35.9151
LLC PREFETCH  NON_SPEC    ACCESS:       5812  HIT:         70  MISS:       5742  HIT %:     1.2044  MISS %:    98.7956   MPKI: 0.02871
LLC WRITEBACK NON_SPEC    ACCESS:    7278388  HIT:    7277991  MISS:        397  HIT %:    99.9945  MISS %:  0.0054545   MPKI: 0.001985
LLC CLEAN_EVICTION NON_SPEC    ACCESS:    2377175  HIT:     259783  MISS:    2117392  HIT %:    10.9282  MISS %:    89.0718   MPKI: 10.587
LLC COMMIT LOAD NON_SPEC    ACCESS:     256605  HIT:          9  MISS:     256596  HIT %: 0.00350734  MISS %:    99.9965   MPKI: 1.28298
LLC LOAD TRANSLATION NON_SPEC    ACCESS:      18903  HIT:          0  MISS:      18903  HIT %:          0  MISS %:        100   MPKI: 0.094515
LLC PREFETCH  REQUESTED:          0  ISSUED:          0  USEFUL:         75  USELESS:       5678
LLC USEFUL LOAD PREFETCHES:         75 PREFETCH ISSUED TO LOWER LEVEL:       5742  ACCURACY: 1.30617
LLC TIMELY PREFETCHES:         75 LATE PREFETCHES: 0 DROPPED PREFETCHES: 0
LLC COMMIT LATE PREFETCHES: 0 MISSED OPPORTUNITY: 0 LATE IN PQ: 0 UNCOVERED: 0
LLC COMMIT LATE MSHR PREFETCHES: 0
LLC MPKI TOTAL: 12.0955 MSHR LATE: 0 PQ LATE: 0 COMMIT LATE: 0 MISSED OPPORTUNITY: 0 UNCOVERED: 0
LLC PREFETCHES SAME FILL-ORIGIN LEVEL: 0 DIFFERENT FILL-ORIGIN LEVEL: 0
LLC AVERAGE MISS LATENCY: 377.965 cycles
LLC AVERAGE MISS LATENCY LOAD: 401.343 cycles
LLC AVERAGE MISS LATENCY PREFETCH: 575.819 cycles
LLC AVERAGE MSHR OCCUPANCY: 8.49217
LLC MSHR FULL: 0
LLC RQ	ACCESS:    9970919	FORWARD:          0	MERGED:          0	TO_CACHE:    9970912
LLC WQ	ACCESS:    9655565	FORWARD:          7	MERGED:          0	TO_CACHE:    9655565
LLC PQ	ACCESS:       5812	FORWARD:          0	MERGED:          0	TO_CACHE:       5812

LLC Dense regions hint to LLC: 0

RAW hits: 4736680
Loads Generated: 52231474
Loads sent to L1D: 47494794
Stores Generated: 36944939
Stores sent to L1D: 36944937
Major fault: 0 Minor fault: 96650
Allocated PAGES: 96650
Total Load insts: 59031146
Total Non-spec loads: 2123763
Percentage of speculative loads: 96.4023

LeapFrogging counter: 20689196
Commit hits: 11662665 miss: 34078404
Commit hit %: 25.4971 miss %: 74.5029
Commits not translated: 0
Loads retired: 2469490
Stores retired: 36944937
Cache fills: 2469490
L1D response latency: 480.064 cycles
Load retirement latency: 842.034 cycles
OOO test counter: 0
Discarded buffer inserts: 11662665 hits: 295015 hit %: 2.52957
Speculative prefetch buffer size: 0
CPU 0 L1D PC-based stride prefetcher final stats
Degree: 3

DRAM Statistics
 CHANNEL 0
 RQ ROW_BUFFER_HIT:     539568  ROW_BUFFER_MISS:    9343786
 DBUS_CONGESTED:         21
 WQ ROW_BUFFER_HIT:    2261044  ROW_BUFFER_MISS:    7301253  FULL:      89830

 AVG_CONGESTED_CYCLE: 6
 All warmup complete: 2
Channel 0 Bank busy for read cycles: 0
Channel 0 Bank busy for write cycles: 0
Channel 0
Rank 0
0banks busy for read cycles: 45726692
0banks busy for write cycles: 41176
1banks busy for read cycles: 32720778
1banks busy for write cycles: 4725153
2banks busy for read cycles: 16359354
2banks busy for write cycles: 3849925
3banks busy for read cycles: 16075652
3banks busy for write cycles: 3546192
4banks busy for read cycles: 57800126
4banks busy for write cycles: 3493021
5banks busy for read cycles: 57423238
5banks busy for write cycles: 3932816
6banks busy for read cycles: 47396997
6banks busy for write cycles: 4338822
7banks busy for read cycles: 49509316
7banks busy for write cycles: 14738636
8banks busy for read cycles: 39174020
8banks busy for write cycles: 172486274

CPU 0 Branch Prediction Accuracy: 97.0951% MPKI: 0.52429 Average ROB Occupancy at Mispredict: 280.129
Branch types
NOT_BRANCH: 196390261 98.1951%
BRANCH_DIRECT_JUMP: 590927 0.295463%
BRANCH_INDIRECT: 0 0%
BRANCH_CONDITIONAL: 3018804 1.5094%
BRANCH_DIRECT_CALL: 0 0%
BRANCH_INDIRECT_CALL: 0 0%
BRANCH_RETURN: 0 0%
BRANCH_OTHER: 0 0%

DRAM PAGES: 1048576
Allocated PAGES: 96650
