
*** ChampSim Multicore Out-of-Order Simulator ***

Warmup Instructions: 50000000
Simulation Instructions: 200000000
Number of CPUs: 1
LLC sets: 2048
LLC ways: 16
L0D sets: 16
L0D ways: 2
ROB size: 352
LQ size: 128
SQ size: 72
Secure Berti: OFF
Berti: OFF
Berti Fill: OFF
On commit prefetching: ON
Hit-based filter: ON
Time-guarding: ON
Free-slotting: ON
Leap-frogging: ON
Train prefetcher on L0D bypass: OFF
No translation penalty for prefetchers: OFF
Prefetch to L0D only: OFF
Prefetch to L1D only: OFF
Clean evictions: ON
Commit loads: ON
Commit write: ON
Fill commit loads to L2C, LLC: ON
DRAM IO FREQUENCY: 6400
ROB SIZE: 352
Off-chip DRAM Size: 4096 MB Channels: 1 Width: 64-bit Data Rate: 6400 MT/s
CPU 0 runs /home/sumon/secure_berti/GhostMinion/../../traces/spec/619.lbm_s-2676B.champsimtrace.xz
.xz
BTB has LRU replacement policy
ITLB has LRU replacement policy
DTLB has LRU replacement policy
STLB has LRU replacement policy
L1I has LRU replacement policy
L0D has LRU replacement policy
CPU 0 L1D IP-based stride prefetcher
L1D has LRU replacement policy
L2C has LRU replacement policy
LLC has LRU replacement policy
Heartbeat CPU 0 instructions: 10000003 cycles: 3042554 heartbeat IPC: 3.28671 cumulative IPC: 3.28671 (Simulation time: 0 hr 0 min 37 sec) 
Heartbeat CPU 0 instructions: 20000003 cycles: 6079355 heartbeat IPC: 3.29294 cumulative IPC: 3.28982 (Simulation time: 0 hr 1 min 12 sec) 
Heartbeat CPU 0 instructions: 30000003 cycles: 9107882 heartbeat IPC: 3.30194 cumulative IPC: 3.29385 (Simulation time: 0 hr 1 min 46 sec) 
Heartbeat CPU 0 instructions: 40000002 cycles: 12120439 heartbeat IPC: 3.31944 cumulative IPC: 3.30021 (Simulation time: 0 hr 2 min 21 sec) 
Heartbeat CPU 0 instructions: 50000001 cycles: 15118284 heartbeat IPC: 3.33573 cumulative IPC: 3.30725 (Simulation time: 0 hr 2 min 56 sec) 

Warmup complete CPU 0 instructions: 50000001 cycles: 15118284 (Simulation time: 0 hr 2 min 56 sec) 

Heartbeat CPU 0 instructions: 60000002 cycles: 37317033 heartbeat IPC: 0.450476 cumulative IPC: 0.450476 (Simulation time: 0 hr 3 min 52 sec) 
Heartbeat CPU 0 instructions: 70000002 cycles: 58506681 heartbeat IPC: 0.471929 cumulative IPC: 0.460953 (Simulation time: 0 hr 4 min 47 sec) 
Heartbeat CPU 0 instructions: 80000002 cycles: 77958800 heartbeat IPC: 0.514083 cumulative IPC: 0.477399 (Simulation time: 0 hr 5 min 38 sec) 
Heartbeat CPU 0 instructions: 90000000 cycles: 97391746 heartbeat IPC: 0.51459 cumulative IPC: 0.486183 (Simulation time: 0 hr 6 min 30 sec) 
Heartbeat CPU 0 instructions: 100000001 cycles: 115545070 heartbeat IPC: 0.550863 cumulative IPC: 0.497875 (Simulation time: 0 hr 7 min 20 sec) 
Heartbeat CPU 0 instructions: 110000000 cycles: 133378797 heartbeat IPC: 0.560735 cumulative IPC: 0.507354 (Simulation time: 0 hr 8 min 9 sec) 
Heartbeat CPU 0 instructions: 120000003 cycles: 150504641 heartbeat IPC: 0.583913 cumulative IPC: 0.517039 (Simulation time: 0 hr 8 min 57 sec) 
Heartbeat CPU 0 instructions: 130000003 cycles: 166893541 heartbeat IPC: 0.610169 cumulative IPC: 0.527095 (Simulation time: 0 hr 9 min 45 sec) 
Heartbeat CPU 0 instructions: 140000003 cycles: 182925504 heartbeat IPC: 0.623754 cumulative IPC: 0.53633 (Simulation time: 0 hr 10 min 32 sec) 
Heartbeat CPU 0 instructions: 150000003 cycles: 198746704 heartbeat IPC: 0.632063 cumulative IPC: 0.544578 (Simulation time: 0 hr 11 min 18 sec) 
Heartbeat CPU 0 instructions: 160000003 cycles: 213613455 heartbeat IPC: 0.672642 cumulative IPC: 0.55417 (Simulation time: 0 hr 12 min 3 sec) 
Heartbeat CPU 0 instructions: 170000003 cycles: 228402440 heartbeat IPC: 0.676179 cumulative IPC: 0.56263 (Simulation time: 0 hr 12 min 47 sec) 
Heartbeat CPU 0 instructions: 180000000 cycles: 242922353 heartbeat IPC: 0.688709 cumulative IPC: 0.570666 (Simulation time: 0 hr 13 min 32 sec) 
Heartbeat CPU 0 instructions: 190000000 cycles: 257289662 heartbeat IPC: 0.696025 cumulative IPC: 0.578103 (Simulation time: 0 hr 14 min 15 sec) 
Heartbeat CPU 0 instructions: 200000001 cycles: 271580350 heartbeat IPC: 0.699756 cumulative IPC: 0.584882 (Simulation time: 0 hr 14 min 58 sec) 
Heartbeat CPU 0 instructions: 210000000 cycles: 285496583 heartbeat IPC: 0.718585 cumulative IPC: 0.591763 (Simulation time: 0 hr 15 min 41 sec) 
Heartbeat CPU 0 instructions: 220000000 cycles: 299603508 heartbeat IPC: 0.708872 cumulative IPC: 0.597571 (Simulation time: 0 hr 16 min 23 sec) 
Heartbeat CPU 0 instructions: 230000002 cycles: 313175114 heartbeat IPC: 0.736833 cumulative IPC: 0.603912 (Simulation time: 0 hr 17 min 5 sec) 
Heartbeat CPU 0 instructions: 240000001 cycles: 326985930 heartbeat IPC: 0.72407 cumulative IPC: 0.609233 (Simulation time: 0 hr 17 min 47 sec) 
Heartbeat CPU 0 instructions: 250000002 cycles: 340551541 heartbeat IPC: 0.737158 cumulative IPC: 0.614565 (Simulation time: 0 hr 18 min 29 sec) 
Finished CPU 0 instructions: 200000001 cycles: 325433257 cumulative IPC: 0.614565 (Simulation time: 0 hr 18 min 29 sec) 
 Instruction ID: 250000378

ChampSim completed all CPUs

Region of Interest Statistics

CPU 0 cumulative IPC: 0.614565 instructions: 200000001 cycles: 325433257
ITLB SPEC fills:          0  NON-SPEC fills:          0
ITLB Test counter :          0
ITLB Leapfrog:          0
ITLB MSHR merge:          0
ITLB TOTAL     ACCESS:   26436800  HIT:   26436800  MISS:          0  HIT %:        100  MISS %:          0   MPKI: 0
ITLB LOAD TRANSLATION NON_SPEC    ACCESS:   26436800  HIT:   26436800  MISS:          0  HIT %:        100  MISS %:          0   MPKI: 0
ITLB PREFETCH  REQUESTED:          0  ISSUED:          0  USEFUL:          0  USELESS:          0
ITLB USEFUL LOAD PREFETCHES:          0 PREFETCH ISSUED TO LOWER LEVEL:          0  ACCURACY: -nan
ITLB TIMELY PREFETCHES:          0 LATE PREFETCHES: 0 DROPPED PREFETCHES: 0
ITLB COMMIT LATE PREFETCHES: 0 MISSED OPPORTUNITY: 0 LATE IN PQ: 0 UNCOVERED: 0
ITLB COMMIT LATE MSHR PREFETCHES: 0
ITLB MPKI TOTAL: 0 MSHR LATE: 0 PQ LATE: 0 COMMIT LATE: 0 MISSED OPPORTUNITY: 0 UNCOVERED: 0
ITLB PREFETCHES SAME FILL-ORIGIN LEVEL: 0 DIFFERENT FILL-ORIGIN LEVEL: 0
ITLB AVERAGE MISS LATENCY: -nan cycles
ITLB AVERAGE MISS LATENCY LOAD: -nan cycles
ITLB AVERAGE MISS LATENCY PREFETCH: -nan cycles
ITLB AVERAGE MSHR OCCUPANCY: 0
ITLB MSHR FULL: 0
ITLB RQ	ACCESS:   34470905	FORWARD:          0	MERGED:    8034106	TO_CACHE:   26436799

DTLB SPEC fills:          0  NON-SPEC fills:          0
DTLB Test counter :          0
DTLB Leapfrog:          0
DTLB MSHR merge:          0
DTLB TOTAL     ACCESS:   33457144  HIT:   33303615  MISS:     153529  HIT %:    99.5411  MISS %:   0.458883   MPKI: 0.767645
DTLB LOAD TRANSLATION NON_SPEC    ACCESS:   33457144  HIT:   33303615  MISS:     153529  HIT %:    99.5411  MISS %:   0.458883   MPKI: 0.767645
DTLB PREFETCH  REQUESTED:          0  ISSUED:          0  USEFUL:          0  USELESS:          0
DTLB USEFUL LOAD PREFETCHES:          0 PREFETCH ISSUED TO LOWER LEVEL:          0  ACCURACY: -nan
DTLB TIMELY PREFETCHES:          0 LATE PREFETCHES: 0 DROPPED PREFETCHES: 0
DTLB COMMIT LATE PREFETCHES: 0 MISSED OPPORTUNITY: 0 LATE IN PQ: 0 UNCOVERED: 0
DTLB COMMIT LATE MSHR PREFETCHES: 0
DTLB MPKI TOTAL: 0 MSHR LATE: 0 PQ LATE: 0 COMMIT LATE: 0 MISSED OPPORTUNITY: 0 UNCOVERED: 0
DTLB PREFETCHES SAME FILL-ORIGIN LEVEL: 0 DIFFERENT FILL-ORIGIN LEVEL: 0
DTLB AVERAGE MISS LATENCY: 125.78 cycles
DTLB AVERAGE MISS LATENCY LOAD: -nan cycles
DTLB AVERAGE MISS LATENCY PREFETCH: -nan cycles
DTLB AVERAGE MSHR OCCUPANCY: 0.0518772
DTLB MSHR FULL: 0
DTLB RQ	ACCESS:   54652553	FORWARD:          0	MERGED:   21161731	TO_CACHE:   33490822

STLB SPEC fills:          0  NON-SPEC fills:          0
STLB Test counter :          0
STLB Leapfrog:          0
STLB MSHR merge:          0
STLB TOTAL     ACCESS:     153924  HIT:      70618  MISS:      83306  HIT %:    45.8785  MISS %:    54.1215   MPKI: 0.41653
STLB LOAD TRANSLATION NON_SPEC    ACCESS:     153529  HIT:      70223  MISS:      83306  HIT %:    45.7392  MISS %:    54.2608   MPKI: 0.41653
STLB TRANSLATION FROM L1D PREFETCHER NON_SPEC    ACCESS:        395  HIT:        395  MISS:          0  HIT %:        100  MISS %:          0   MPKI: 0
STLB PREFETCH  REQUESTED:          0  ISSUED:          0  USEFUL:          0  USELESS:          0
STLB USEFUL LOAD PREFETCHES:          0 PREFETCH ISSUED TO LOWER LEVEL:          0  ACCURACY: -nan
STLB TIMELY PREFETCHES:          0 LATE PREFETCHES: 0 DROPPED PREFETCHES: 0
STLB COMMIT LATE PREFETCHES: 0 MISSED OPPORTUNITY: 0 LATE IN PQ: 0 UNCOVERED: 0
STLB COMMIT LATE MSHR PREFETCHES: 0
STLB MPKI TOTAL: 0 MSHR LATE: 0 PQ LATE: 0 COMMIT LATE: 0 MISSED OPPORTUNITY: 0 UNCOVERED: 0
STLB PREFETCHES SAME FILL-ORIGIN LEVEL: 0 DIFFERENT FILL-ORIGIN LEVEL: 0
STLB AVERAGE MISS LATENCY: 215.207 cycles
STLB AVERAGE MISS LATENCY LOAD: -nan cycles
STLB AVERAGE MISS LATENCY PREFETCH: -nan cycles
STLB AVERAGE MSHR OCCUPANCY: 0.139253
STLB MSHR FULL: 0
STLB RQ	ACCESS:     154084	FORWARD:          0	MERGED:        156	TO_CACHE:     153928

STLB Hit, L1D data hit: 0
STLB Hit, L2C data hit: 0
STLB Hit, LLC data hit: 0
STLB Hit, LLC data miss: 0
STLB STLB hints to L2: 0
L0D SPEC fills:   10714006  NON-SPEC fills:          0
L0D TimeGuard Request with older TS:     150932 Restricted eviction:      17991 read:    1472549
L0D Test counter :          0
L0D Leapfrog:          0
L0D MSHR merge:    3562669
L0D TOTAL     ACCESS:   19940119  HIT:    8157425  MISS:   11782694  HIT %:    40.9096  MISS %:    59.0904   MPKI: 58.9135
L0D LOAD      TOTAL       ACCESS:   19940119  HIT:    8157425  MISS:   11782694  HIT %:    40.9096  MISS %:    59.0904   MPKI: 58.9135
L0D LOAD      NON_SPEC    ACCESS:    1862533  HIT:     811836  MISS:    1050697  HIT %:    43.5877  MISS %:    56.4123   MPKI: 5.25348
L0D LOAD      SPEC        ACCESS:   18077586  HIT:    7345589  MISS:   10731997  HIT %:    40.6337  MISS %:    59.3663   MPKI: 53.66
L0D PREFETCH  REQUESTED:          0  ISSUED:          0  USEFUL:          0  USELESS:          0
L0D USEFUL LOAD PREFETCHES:          0 PREFETCH ISSUED TO LOWER LEVEL:          0  ACCURACY: -nan
L0D TIMELY PREFETCHES:          0 LATE PREFETCHES: 0 DROPPED PREFETCHES: 0
L0D COMMIT LATE PREFETCHES: 0 MISSED OPPORTUNITY: 0 LATE IN PQ: 0 UNCOVERED: 0
L0D COMMIT LATE MSHR PREFETCHES: 0
L0D MPKI TOTAL: 76.7268 MSHR LATE: 0 PQ LATE: 0 COMMIT LATE: 0 MISSED OPPORTUNITY: 0 UNCOVERED: 0
L0D PREFETCHES SAME FILL-ORIGIN LEVEL: 0 DIFFERENT FILL-ORIGIN LEVEL: 0
L0D AVERAGE MISS LATENCY: 57.6831 cycles
L0D AVERAGE MISS LATENCY LOAD: 57.6831 cycles
L0D AVERAGE MISS LATENCY PREFETCH: -nan cycles
L0D AVERAGE MSHR OCCUPANCY: 1.29786
L0D MSHR FULL: 0.0188584
L0D RQ	ACCESS:   42476188	FORWARD:          0	MERGED:   18973401	TO_CACHE:   23502787
L0D WQ	ACCESS:   31149766	FORWARD:          0	MERGED:          0	TO_CACHE:   31149766

L1D SPEC fills:          0  NON-SPEC fills:      14702
L1D Test counter :    1323122
L1D Leapfrog:          0
L1D MSHR merge:       1223
L1D TOTAL     ACCESS:   45909435  HIT:   35686397  MISS:   10223038  HIT %:    77.7322  MISS %:    22.2678   MPKI: 51.1152
L1D LOAD      TOTAL       ACCESS:   11781471  HIT:   10417299  MISS:    1364172  HIT %:     88.421  MISS %:     11.579   MPKI: 6.82086
L1D LOAD      NON_SPEC    ACCESS:    1050144  HIT:    1035442  MISS:      14702  HIT %:       98.6  MISS %:        1.4   MPKI: 0.07351
L1D LOAD      SPEC        ACCESS:   10731327  HIT:    9381857  MISS:    1349470  HIT %:    87.4249  MISS %:    12.5751   MPKI: 6.74735
L1D RFO       NON_SPEC    ACCESS:   31111198  HIT:   23649353  MISS:    7461845  HIT %:    76.0156  MISS %:    23.9844   MPKI: 37.3092
L1D PREFETCH  NON_SPEC    ACCESS:        180  HIT:         15  MISS:        165  HIT %:    8.33333  MISS %:    91.6667   MPKI: 0.000825
L1D COMMIT LOAD NON_SPEC    ACCESS:    1665197  HIT:    1610437  MISS:      54760  HIT %:    96.7115  MISS %:     3.2885   MPKI: 0.2738
L1D COMMIT WRITE NON_SPEC    ACCESS:    1351389  HIT:       9293  MISS:    1342096  HIT %:   0.687663  MISS %:    99.3123   MPKI: 6.71048
L1D PREFETCH  REQUESTED:       1101  ISSUED:       1101  USEFUL:         35  USELESS:        130
L1D USEFUL LOAD PREFETCHES:         35 PREFETCH ISSUED TO LOWER LEVEL:        504  ACCURACY: 6.94444
L1D TIMELY PREFETCHES:         35 LATE PREFETCHES: 0 DROPPED PREFETCHES: 0
L1D COMMIT LATE PREFETCHES: 0 MISSED OPPORTUNITY: 0 LATE IN PQ: 0 UNCOVERED: 0
L1D COMMIT LATE MSHR PREFETCHES: 0
L1D MPKI TOTAL: 6.82697 MSHR LATE: 0 PQ LATE: 0 COMMIT LATE: 0 MISSED OPPORTUNITY: 0 UNCOVERED: 0
L1D PREFETCHES SAME FILL-ORIGIN LEVEL: 165 DIFFERENT FILL-ORIGIN LEVEL: 339
L1D AVERAGE MISS LATENCY: 224.641 cycles
L1D AVERAGE MISS LATENCY LOAD: 389.558 cycles
L1D AVERAGE MISS LATENCY PREFETCH: 262.545 cycles
L1D AVERAGE MSHR OCCUPANCY: 13.0864
L1D MSHR FULL: 0.773466
L1D RQ	ACCESS:   18980171	FORWARD:          0	MERGED:    5532221	TO_CACHE:   13447950
L1D WQ	ACCESS:   32501157	FORWARD:          0	MERGED:      15186	TO_CACHE:   32485971
L1D PQ	ACCESS:       1101	FORWARD:          0	MERGED:        546	TO_CACHE:        555

L1D UNIQUE REGIONS ACCESSED: 0
L1D REGIONS CONFLICTS: 0
L1D Cross Page Prefetch Requests: 0
L1D Same Page Prefetch Requests: 3927
L1D ROI Sum of L1D PQ occupancy: 63994
L1D PREFETCHES PUSHED FROM L2C: 0
L1I SPEC fills:          0  NON-SPEC fills:          0
L1I Test counter :          0
L1I Leapfrog:          0
L1I MSHR merge:          0
L1I TOTAL     ACCESS:   34470906  HIT:   34470906  MISS:          0  HIT %:        100  MISS %:          0   MPKI: 0
L1I LOAD      TOTAL       ACCESS:   34470906  HIT:   34470906  MISS:          0  HIT %:        100  MISS %:          0   MPKI: 0
L1I LOAD      NON_SPEC    ACCESS:   34470906  HIT:   34470906  MISS:          0  HIT %:        100  MISS %:          0   MPKI: 0
L1I PREFETCH  REQUESTED:          0  ISSUED:          0  USEFUL:          0  USELESS:          0
L1I USEFUL LOAD PREFETCHES:          0 PREFETCH ISSUED TO LOWER LEVEL:          0  ACCURACY: -nan
L1I TIMELY PREFETCHES:          0 LATE PREFETCHES: 0 DROPPED PREFETCHES: 0
L1I COMMIT LATE PREFETCHES: 0 MISSED OPPORTUNITY: 0 LATE IN PQ: 0 UNCOVERED: 0
L1I COMMIT LATE MSHR PREFETCHES: 0
L1I MPKI TOTAL: 0 MSHR LATE: 0 PQ LATE: 0 COMMIT LATE: 0 MISSED OPPORTUNITY: 0 UNCOVERED: 0
L1I PREFETCHES SAME FILL-ORIGIN LEVEL: 0 DIFFERENT FILL-ORIGIN LEVEL: 0
L1I AVERAGE MISS LATENCY: -nan cycles
L1I AVERAGE MISS LATENCY LOAD: -nan cycles
L1I AVERAGE MISS LATENCY PREFETCH: -nan cycles
L1I AVERAGE MSHR OCCUPANCY: 0
L1I MSHR FULL: 0
L1I RQ	ACCESS:   49636980	FORWARD:          0	MERGED:   15166075	TO_CACHE:   34470905

BTB SPEC fills:          0  NON-SPEC fills:          0
BTB Test counter :          0
BTB Leapfrog:          0
BTB MSHR merge:          0
BTB TOTAL     ACCESS:    2423395  HIT:    2423389  MISS:          6  HIT %:    99.9998  MISS %: 0.000247587   MPKI: 3e-05
BTB BRANCH_DIRECT_JUMP	ACCESS:     120779  HIT:     120778  MISS:          1
BTB BRANCH_INDIRECT	ACCESS:          0  HIT:          0  MISS:          0
BTB BRANCH_CONDITIONAL	ACCESS:    2302616  HIT:    2302611  MISS:          5
BTB BRANCH_DIRECT_CALL	ACCESS:          0  HIT:          0  MISS:          0
BTB BRANCH_INDIRECT_CALL	ACCESS:          0  HIT:          0  MISS:          0
BTB BRANCH_RETURN	ACCESS:          0  HIT:          0  MISS:          0
BTB BRANCH_OTHER ACCESS:          0  HIT:          0  MISS:          0

L2C SPEC fills:          0  NON-SPEC fills:      14251
L2C Test counter :    1318683
L2C Leapfrog:          0
L2C MSHR merge:          0
L2C TOTAL     ACCESS:   18082641  HIT:   11354795  MISS:    6727846  HIT %:    62.7939  MISS %:    37.2061   MPKI: 33.6392
L2C LOAD      TOTAL       ACCESS:    1364043  HIT:      25818  MISS:    1338225  HIT %:    1.89276  MISS %:    98.1072   MPKI: 6.69112
L2C LOAD      NON_SPEC    ACCESS:      14701  HIT:        450  MISS:      14251  HIT %:    3.06102  MISS %:     96.939   MPKI: 0.071255
L2C LOAD      SPEC        ACCESS:    1349342  HIT:      25368  MISS:    1323974  HIT %:    1.88003  MISS %:      98.12   MPKI: 6.61987
L2C RFO       NON_SPEC    ACCESS:    7461843  HIT:    3402696  MISS:    4059147  HIT %:    45.6013  MISS %:    54.3987   MPKI: 20.2957
L2C PREFETCH  NON_SPEC    ACCESS:        457  HIT:        176  MISS:        281  HIT %:     38.512  MISS %:     61.488   MPKI: 0.001405
L2C WRITEBACK NON_SPEC    ACCESS:    7461968  HIT:    7461891  MISS:         77  HIT %:     99.999  MISS %:  0.0010319   MPKI: 0.000385
L2C CLEAN_EVICTION NON_SPEC    ACCESS:    1323121  HIT:      58144  MISS:    1264977  HIT %:    4.39446  MISS %:    95.6055   MPKI: 6.32488
L2C COMMIT LOAD NON_SPEC    ACCESS:      54760  HIT:        133  MISS:      54627  HIT %:   0.242878  MISS %:    99.7571   MPKI: 0.273135
L2C LOAD TRANSLATION NON_SPEC    ACCESS:     416449  HIT:     405937  MISS:      10512  HIT %:    97.4758  MISS %:     2.5242   MPKI: 0.05256
L2C PREFETCH  REQUESTED:          0  ISSUED:          0  USEFUL:        225  USELESS:         60
L2C USEFUL LOAD PREFETCHES:        225 PREFETCH ISSUED TO LOWER LEVEL:        286  ACCURACY: 78.6713
L2C TIMELY PREFETCHES:        225 LATE PREFETCHES: 5 DROPPED PREFETCHES: 0
L2C COMMIT LATE PREFETCHES: 0 MISSED OPPORTUNITY: 0 LATE IN PQ: 0 UNCOVERED: 0
L2C COMMIT LATE MSHR PREFETCHES: 0
L2C MPKI TOTAL: 6.69112 MSHR LATE: 2.5e-05 PQ LATE: 0 COMMIT LATE: 0 MISSED OPPORTUNITY: 0 UNCOVERED: 0
L2C PREFETCHES SAME FILL-ORIGIN LEVEL: 189 DIFFERENT FILL-ORIGIN LEVEL: 0
L2C AVERAGE MISS LATENCY: 318.792 cycles
L2C AVERAGE MISS LATENCY LOAD: 365.204 cycles
L2C AVERAGE MISS LATENCY PREFETCH: 559.021 cycles
L2C AVERAGE MSHR OCCUPANCY: 6.65159
L2C MSHR FULL: 0
L2C RQ	ACCESS:    9297230	FORWARD:          0	MERGED:          0	TO_CACHE:    9297099
L2C WQ	ACCESS:    8785091	FORWARD:        131	MERGED:          1	TO_CACHE:    8785090
L2C PQ	ACCESS:        504	FORWARD:          0	MERGED:          0	TO_CACHE:        504

L2C Instructions Evicting Data 0
L2C Translations Evicting Data 10405
L2C Data Evicting Data 4120519
L2C Instructions Evicting Instructions 0
L2C Translations Evicting Instructions 0
L2C Data Evicting Instructions 0
L2C Instructions Evicting Translations 0
L2C Translations Evicting Translations 107
L2C Data Evicting Translations 7787
L2C Dense regions hint from L2: 0
PSCL5 SPEC fills:          0  NON-SPEC fills:          0
PSCL5 Test counter :          0
PSCL5 Leapfrog:          0
PSCL5 MSHR merge:          0
PSCL5 TOTAL     ACCESS:          0  HIT:          0  MISS:          0  HIT %:       -nan  MISS %:       -nan   MPKI: 0
PSCL5 PREFETCH  REQUESTED:          0  ISSUED:          0  USEFUL:          0  USELESS:          0
PSCL5 USEFUL LOAD PREFETCHES:          0 PREFETCH ISSUED TO LOWER LEVEL:          0  ACCURACY: -nan
PSCL5 TIMELY PREFETCHES:          0 LATE PREFETCHES: 0 DROPPED PREFETCHES: 0
PSCL5 COMMIT LATE PREFETCHES: 0 MISSED OPPORTUNITY: 0 LATE IN PQ: 0 UNCOVERED: 0
PSCL5 COMMIT LATE MSHR PREFETCHES: 0
PSCL5 MPKI TOTAL: 0 MSHR LATE: 0 PQ LATE: 0 COMMIT LATE: 0 MISSED OPPORTUNITY: 0 UNCOVERED: 0
PSCL5 PREFETCHES SAME FILL-ORIGIN LEVEL: 0 DIFFERENT FILL-ORIGIN LEVEL: 0

PSCL4 SPEC fills:          0  NON-SPEC fills:          0
PSCL4 Test counter :          0
PSCL4 Leapfrog:          0
PSCL4 MSHR merge:          0
PSCL4 TOTAL     ACCESS:          0  HIT:          0  MISS:          0  HIT %:       -nan  MISS %:       -nan   MPKI: 0
PSCL4 PREFETCH  REQUESTED:          0  ISSUED:          0  USEFUL:          0  USELESS:          0
PSCL4 USEFUL LOAD PREFETCHES:          0 PREFETCH ISSUED TO LOWER LEVEL:          0  ACCURACY: -nan
PSCL4 TIMELY PREFETCHES:          0 LATE PREFETCHES: 0 DROPPED PREFETCHES: 0
PSCL4 COMMIT LATE PREFETCHES: 0 MISSED OPPORTUNITY: 0 LATE IN PQ: 0 UNCOVERED: 0
PSCL4 COMMIT LATE MSHR PREFETCHES: 0
PSCL4 MPKI TOTAL: 0 MSHR LATE: 0 PQ LATE: 0 COMMIT LATE: 0 MISSED OPPORTUNITY: 0 UNCOVERED: 0
PSCL4 PREFETCHES SAME FILL-ORIGIN LEVEL: 0 DIFFERENT FILL-ORIGIN LEVEL: 0

PSCL3 SPEC fills:          0  NON-SPEC fills:          0
PSCL3 Test counter :          0
PSCL3 Leapfrog:          0
PSCL3 MSHR merge:          0
PSCL3 TOTAL     ACCESS:          0  HIT:          0  MISS:          0  HIT %:       -nan  MISS %:       -nan   MPKI: 0
PSCL3 PREFETCH  REQUESTED:          0  ISSUED:          0  USEFUL:          0  USELESS:          0
PSCL3 USEFUL LOAD PREFETCHES:          0 PREFETCH ISSUED TO LOWER LEVEL:          0  ACCURACY: -nan
PSCL3 TIMELY PREFETCHES:          0 LATE PREFETCHES: 0 DROPPED PREFETCHES: 0
PSCL3 COMMIT LATE PREFETCHES: 0 MISSED OPPORTUNITY: 0 LATE IN PQ: 0 UNCOVERED: 0
PSCL3 COMMIT LATE MSHR PREFETCHES: 0
PSCL3 MPKI TOTAL: 0 MSHR LATE: 0 PQ LATE: 0 COMMIT LATE: 0 MISSED OPPORTUNITY: 0 UNCOVERED: 0
PSCL3 PREFETCHES SAME FILL-ORIGIN LEVEL: 0 DIFFERENT FILL-ORIGIN LEVEL: 0

PSCL2 SPEC fills:          0  NON-SPEC fills:          0
PSCL2 Test counter :          0
PSCL2 Leapfrog:          0
PSCL2 MSHR merge:          0
PSCL2 TOTAL     ACCESS:          0  HIT:          0  MISS:          0  HIT %:       -nan  MISS %:       -nan   MPKI: 0
PSCL2 PREFETCH  REQUESTED:          0  ISSUED:          0  USEFUL:          0  USELESS:          0
PSCL2 USEFUL LOAD PREFETCHES:          0 PREFETCH ISSUED TO LOWER LEVEL:          0  ACCURACY: -nan
PSCL2 TIMELY PREFETCHES:          0 LATE PREFETCHES: 0 DROPPED PREFETCHES: 0
PSCL2 COMMIT LATE PREFETCHES: 0 MISSED OPPORTUNITY: 0 LATE IN PQ: 0 UNCOVERED: 0
PSCL2 COMMIT LATE MSHR PREFETCHES: 0
PSCL2 MPKI TOTAL: 0 MSHR LATE: 0 PQ LATE: 0 COMMIT LATE: 0 MISSED OPPORTUNITY: 0 UNCOVERED: 0
PSCL2 PREFETCHES SAME FILL-ORIGIN LEVEL: 0 DIFFERENT FILL-ORIGIN LEVEL: 0

LLC SPEC fills:          0  NON-SPEC fills:      14204
LLC Test counter :    1318801
LLC Leapfrog:          0
LLC MSHR merge:          0
LLC TOTAL     ACCESS:   10842013  HIT:    4180747  MISS:    6661266  HIT %:    38.5606  MISS %:    61.4394   MPKI: 33.3063
LLC LOAD      TOTAL       ACCESS:    1338224  HIT:       1435  MISS:    1336789  HIT %:   0.107232  MISS %:    99.8928   MPKI: 6.68394
LLC LOAD      NON_SPEC    ACCESS:      14251  HIT:         47  MISS:      14204  HIT %:   0.329801  MISS %:    99.6702   MPKI: 0.07102
LLC LOAD      SPEC        ACCESS:    1323973  HIT:       1388  MISS:    1322585  HIT %:   0.104836  MISS %:    99.8952   MPKI: 6.61292
LLC RFO       NON_SPEC    ACCESS:    4059140  HIT:      61915  MISS:    3997225  HIT %:    1.52532  MISS %:    98.4747   MPKI: 19.9861
LLC PREFETCH  NON_SPEC    ACCESS:        286  HIT:          0  MISS:        286  HIT %:          0  MISS %:        100   MPKI: 0.00143
LLC WRITEBACK NON_SPEC    ACCESS:    4060541  HIT:    4060470  MISS:         71  HIT %:    99.9983  MISS %: 0.00174854   MPKI: 0.000355
LLC CLEAN_EVICTION NON_SPEC    ACCESS:    1318683  HIT:      56927  MISS:    1261756  HIT %:    4.31696  MISS %:     95.683   MPKI: 6.30878
LLC COMMIT LOAD NON_SPEC    ACCESS:      54627  HIT:          0  MISS:      54627  HIT %:          0  MISS %:        100   MPKI: 0.273135
LLC LOAD TRANSLATION NON_SPEC    ACCESS:      10512  HIT:          0  MISS:      10512  HIT %:          0  MISS %:        100   MPKI: 0.05256
LLC PREFETCH  REQUESTED:          0  ISSUED:          0  USEFUL:          6  USELESS:        305
LLC USEFUL LOAD PREFETCHES:          6 PREFETCH ISSUED TO LOWER LEVEL:        286  ACCURACY: 2.0979
LLC TIMELY PREFETCHES:          6 LATE PREFETCHES: 0 DROPPED PREFETCHES: 0
LLC COMMIT LATE PREFETCHES: 0 MISSED OPPORTUNITY: 0 LATE IN PQ: 0 UNCOVERED: 0
LLC COMMIT LATE MSHR PREFETCHES: 0
LLC MPKI TOTAL: 6.68394 MSHR LATE: 0 PQ LATE: 0 COMMIT LATE: 0 MISSED OPPORTUNITY: 0 UNCOVERED: 0
LLC PREFETCHES SAME FILL-ORIGIN LEVEL: 0 DIFFERENT FILL-ORIGIN LEVEL: 0
LLC AVERAGE MISS LATENCY: 298.986 cycles
LLC AVERAGE MISS LATENCY LOAD: 344.317 cycles
LLC AVERAGE MISS LATENCY PREFETCH: 530.514 cycles
LLC AVERAGE MSHR OCCUPANCY: 6.20527
LLC MSHR FULL: 0
LLC RQ	ACCESS:    5462510	FORWARD:          0	MERGED:          0	TO_CACHE:    5462507
LLC WQ	ACCESS:    5379224	FORWARD:          3	MERGED:          0	TO_CACHE:    5379224
LLC PQ	ACCESS:        286	FORWARD:          0	MERGED:          0	TO_CACHE:        286

LLC Dense regions hint to LLC: 0

RAW hits: 5282915
Loads Generated: 47759105
Loads sent to L1D: 42476188
Stores Generated: 31149766
Stores sent to L1D: 31149766
Major fault: 0 Minor fault: 61402
Allocated PAGES: 61402
Total Load insts: 53704016
Total Non-spec loads: 2339362
Percentage of speculative loads: 95.644

LeapFrogging counter: 4166182
Commit hits: 10563078 miss: 29990119
Commit hit %: 26.0475 miss %: 73.9525
Commits not translated: 0
Loads retired: 1364172
Stores retired: 31149766
Cache fills: 1364172
L1D response latency: 389.558 cycles
Load retirement latency: 543.476 cycles
OOO test counter: 0
Discarded buffer inserts: 10563078 hits: 64654 hit %: 0.612075
Speculative prefetch buffer size: 0
CPU 0 L1D PC-based stride prefetcher final stats
Degree: 3

DRAM Statistics
 CHANNEL 0
 RQ ROW_BUFFER_HIT:     253829  ROW_BUFFER_MISS:    5145613
 DBUS_CONGESTED:          5
 WQ ROW_BUFFER_HIT:    1392220  ROW_BUFFER_MISS:    3921873  FULL:      24913

 AVG_CONGESTED_CYCLE: 6
 All warmup complete: 2
Channel 0 Bank busy for read cycles: 0
Channel 0 Bank busy for write cycles: 0
Channel 0
Rank 0
0banks busy for read cycles: 9496792
0banks busy for write cycles: 8331
1banks busy for read cycles: 32098401
1banks busy for write cycles: 1345212
2banks busy for read cycles: 10674807
2banks busy for write cycles: 1179753
3banks busy for read cycles: 9502305
3banks busy for write cycles: 1116218
4banks busy for read cycles: 60833604
4banks busy for write cycles: 1112143
5banks busy for read cycles: 42825864
5banks busy for write cycles: 1195463
6banks busy for read cycles: 25782353
6banks busy for write cycles: 1278647
7banks busy for read cycles: 10365298
7banks busy for write cycles: 7135050
8banks busy for read cycles: 8311909
8banks busy for write cycles: 101171108

CPU 0 Branch Prediction Accuracy: 99.0972% MPKI: 0.10939 Average ROB Occupancy at Mispredict: 263.203
Branch types
NOT_BRANCH: 197576593 98.7883%
BRANCH_DIRECT_JUMP: 120779 0.0603895%
BRANCH_INDIRECT: 0 0%
BRANCH_CONDITIONAL: 2302626 1.15131%
BRANCH_DIRECT_CALL: 0 0%
BRANCH_INDIRECT_CALL: 0 0%
BRANCH_RETURN: 0 0%
BRANCH_OTHER: 0 0%

DRAM PAGES: 1048576
Allocated PAGES: 61402
