
*** ChampSim Multicore Out-of-Order Simulator ***

Warmup Instructions: 50000000
Simulation Instructions: 200000000
Number of CPUs: 1
LLC sets: 2048
LLC ways: 16
L0D sets: 16
L0D ways: 2
ROB size: 352
LQ size: 128
SQ size: 72
Secure Berti: OFF
Berti: OFF
Berti Fill: OFF
On commit prefetching: ON
Hit-based filter: ON
Time-guarding: ON
Free-slotting: ON
Leap-frogging: ON
Train prefetcher on L0D bypass: OFF
No translation penalty for prefetchers: OFF
Prefetch to L0D only: OFF
Prefetch to L1D only: OFF
Clean evictions: ON
Commit loads: ON
Commit write: ON
Fill commit loads to L2C, LLC: ON
DRAM IO FREQUENCY: 6400
ROB SIZE: 352
Off-chip DRAM Size: 4096 MB Channels: 1 Width: 64-bit Data Rate: 6400 MT/s
CPU 0 runs /home/sumon/secure_berti/GhostMinion/../../traces/spec/621.wrf_s-8065B.champsimtrace.xz
.xz
BTB has LRU replacement policy
ITLB has LRU replacement policy
DTLB has LRU replacement policy
STLB has LRU replacement policy
L1I has LRU replacement policy
L0D has LRU replacement policy
CPU 0 L1D IP-based stride prefetcher
L1D has LRU replacement policy
L2C has LRU replacement policy
LLC has LRU replacement policy
Heartbeat CPU 0 instructions: 10000000 cycles: 3210859 heartbeat IPC: 3.11443 cumulative IPC: 3.11443 (Simulation time: 0 hr 0 min 37 sec) 
Heartbeat CPU 0 instructions: 20000000 cycles: 6371849 heartbeat IPC: 3.16357 cumulative IPC: 3.13881 (Simulation time: 0 hr 1 min 8 sec) 
Heartbeat CPU 0 instructions: 30000000 cycles: 9520129 heartbeat IPC: 3.17634 cumulative IPC: 3.15122 (Simulation time: 0 hr 1 min 41 sec) 
Heartbeat CPU 0 instructions: 40000003 cycles: 12732755 heartbeat IPC: 3.11272 cumulative IPC: 3.1415 (Simulation time: 0 hr 2 min 13 sec) 
Heartbeat CPU 0 instructions: 50000002 cycles: 15905805 heartbeat IPC: 3.15154 cumulative IPC: 3.14351 (Simulation time: 0 hr 2 min 45 sec) 

Warmup complete CPU 0 instructions: 50000002 cycles: 15905805 (Simulation time: 0 hr 2 min 45 sec) 

Heartbeat CPU 0 instructions: 60000003 cycles: 25017448 heartbeat IPC: 1.0975 cumulative IPC: 1.0975 (Simulation time: 0 hr 3 min 24 sec) 
Heartbeat CPU 0 instructions: 70000002 cycles: 35924910 heartbeat IPC: 0.916803 cumulative IPC: 0.999046 (Simulation time: 0 hr 4 min 1 sec) 
Heartbeat CPU 0 instructions: 80000001 cycles: 45482219 heartbeat IPC: 1.04632 cumulative IPC: 1.01432 (Simulation time: 0 hr 4 min 42 sec) 
Heartbeat CPU 0 instructions: 90000003 cycles: 56209453 heartbeat IPC: 0.932207 cumulative IPC: 0.992466 (Simulation time: 0 hr 5 min 20 sec) 
Heartbeat CPU 0 instructions: 100000000 cycles: 65903760 heartbeat IPC: 1.03153 cumulative IPC: 1.00004 (Simulation time: 0 hr 6 min 3 sec) 
Heartbeat CPU 0 instructions: 110000000 cycles: 76453689 heartbeat IPC: 0.947874 cumulative IPC: 0.990951 (Simulation time: 0 hr 6 min 40 sec) 
Heartbeat CPU 0 instructions: 120000000 cycles: 90034595 heartbeat IPC: 0.736328 cumulative IPC: 0.944302 (Simulation time: 0 hr 7 min 31 sec) 
Heartbeat CPU 0 instructions: 130000002 cycles: 102091834 heartbeat IPC: 0.829377 cumulative IPC: 0.928225 (Simulation time: 0 hr 8 min 20 sec) 
Heartbeat CPU 0 instructions: 140000001 cycles: 114168317 heartbeat IPC: 0.828056 cumulative IPC: 0.915914 (Simulation time: 0 hr 9 min 9 sec) 
Heartbeat CPU 0 instructions: 150000002 cycles: 128207271 heartbeat IPC: 0.712304 cumulative IPC: 0.89046 (Simulation time: 0 hr 10 min 2 sec) 
Heartbeat CPU 0 instructions: 160000001 cycles: 142728566 heartbeat IPC: 0.688644 cumulative IPC: 0.867352 (Simulation time: 0 hr 10 min 50 sec) 
Heartbeat CPU 0 instructions: 170000003 cycles: 157120086 heartbeat IPC: 0.694854 cumulative IPC: 0.849772 (Simulation time: 0 hr 11 min 47 sec) 
Heartbeat CPU 0 instructions: 180000000 cycles: 165673193 heartbeat IPC: 1.16917 cumulative IPC: 0.868013 (Simulation time: 0 hr 12 min 26 sec) 
Heartbeat CPU 0 instructions: 190000001 cycles: 173830884 heartbeat IPC: 1.22584 cumulative IPC: 0.886496 (Simulation time: 0 hr 13 min 4 sec) 
Heartbeat CPU 0 instructions: 200000003 cycles: 182860138 heartbeat IPC: 1.10751 cumulative IPC: 0.898449 (Simulation time: 0 hr 13 min 35 sec) 
Heartbeat CPU 0 instructions: 210000000 cycles: 191707077 heartbeat IPC: 1.13033 cumulative IPC: 0.910119 (Simulation time: 0 hr 14 min 3 sec) 
Heartbeat CPU 0 instructions: 220000000 cycles: 199802027 heartbeat IPC: 1.23534 cumulative IPC: 0.924434 (Simulation time: 0 hr 14 min 34 sec) 
Heartbeat CPU 0 instructions: 230000000 cycles: 211303472 heartbeat IPC: 0.869456 cumulative IPC: 0.921198 (Simulation time: 0 hr 15 min 8 sec) 
Heartbeat CPU 0 instructions: 240000001 cycles: 224070338 heartbeat IPC: 0.783278 cumulative IPC: 0.91274 (Simulation time: 0 hr 15 min 47 sec) 
Heartbeat CPU 0 instructions: 250000000 cycles: 236801114 heartbeat IPC: 0.785498 cumulative IPC: 0.905406 (Simulation time: 0 hr 16 min 29 sec) 
Finished CPU 0 instructions: 200000000 cycles: 220895312 cumulative IPC: 0.905406 (Simulation time: 0 hr 16 min 29 sec) 
 Instruction ID: 250000036

ChampSim completed all CPUs

Region of Interest Statistics

CPU 0 cumulative IPC: 0.905406 instructions: 200000000 cycles: 220895312
ITLB SPEC fills:          0  NON-SPEC fills:          0
ITLB Test counter :          0
ITLB Leapfrog:          0
ITLB MSHR merge:          0
ITLB TOTAL     ACCESS:   28032285  HIT:   28032150  MISS:        135  HIT %:    99.9995  MISS %: 0.000481588   MPKI: 0.000675
ITLB LOAD TRANSLATION NON_SPEC    ACCESS:   28032285  HIT:   28032150  MISS:        135  HIT %:    99.9995  MISS %: 0.000481588   MPKI: 0.000675
ITLB PREFETCH  REQUESTED:          0  ISSUED:          0  USEFUL:          0  USELESS:          0
ITLB USEFUL LOAD PREFETCHES:          0 PREFETCH ISSUED TO LOWER LEVEL:          0  ACCURACY: -nan
ITLB TIMELY PREFETCHES:          0 LATE PREFETCHES: 0 DROPPED PREFETCHES: 0
ITLB COMMIT LATE PREFETCHES: 0 MISSED OPPORTUNITY: 0 LATE IN PQ: 0 UNCOVERED: 0
ITLB COMMIT LATE MSHR PREFETCHES: 0
ITLB MPKI TOTAL: 0 MSHR LATE: 0 PQ LATE: 0 COMMIT LATE: 0 MISSED OPPORTUNITY: 0 UNCOVERED: 0
ITLB PREFETCHES SAME FILL-ORIGIN LEVEL: 0 DIFFERENT FILL-ORIGIN LEVEL: 0
ITLB AVERAGE MISS LATENCY: 323.896 cycles
ITLB AVERAGE MISS LATENCY LOAD: -nan cycles
ITLB AVERAGE MISS LATENCY PREFETCH: -nan cycles
ITLB AVERAGE MSHR OCCUPANCY: 1.855e-06
ITLB MSHR FULL: 0
ITLB RQ	ACCESS:   34215457	FORWARD:          0	MERGED:    6183122	TO_CACHE:   28032335

DTLB SPEC fills:          0  NON-SPEC fills:          0
DTLB Test counter :          0
DTLB Leapfrog:          0
DTLB MSHR merge:          0
DTLB TOTAL     ACCESS:   49577370  HIT:   49505978  MISS:      71392  HIT %:     99.856  MISS %:   0.144001   MPKI: 0.35696
DTLB LOAD TRANSLATION NON_SPEC    ACCESS:   49577370  HIT:   49505978  MISS:      71392  HIT %:     99.856  MISS %:   0.144001   MPKI: 0.35696
DTLB PREFETCH  REQUESTED:          0  ISSUED:          0  USEFUL:          0  USELESS:          0
DTLB USEFUL LOAD PREFETCHES:          0 PREFETCH ISSUED TO LOWER LEVEL:          0  ACCURACY: -nan
DTLB TIMELY PREFETCHES:          0 LATE PREFETCHES: 0 DROPPED PREFETCHES: 0
DTLB COMMIT LATE PREFETCHES: 0 MISSED OPPORTUNITY: 0 LATE IN PQ: 0 UNCOVERED: 0
DTLB COMMIT LATE MSHR PREFETCHES: 0
DTLB MPKI TOTAL: 0 MSHR LATE: 0 PQ LATE: 0 COMMIT LATE: 0 MISSED OPPORTUNITY: 0 UNCOVERED: 0
DTLB PREFETCHES SAME FILL-ORIGIN LEVEL: 0 DIFFERENT FILL-ORIGIN LEVEL: 0
DTLB AVERAGE MISS LATENCY: 55.0824 cycles
DTLB AVERAGE MISS LATENCY LOAD: -nan cycles
DTLB AVERAGE MISS LATENCY PREFETCH: -nan cycles
DTLB AVERAGE MSHR OCCUPANCY: 0.00834991
DTLB MSHR FULL: 7.90839e-05
DTLB RQ	ACCESS:   56540864	FORWARD:          0	MERGED:    6913838	TO_CACHE:   49627026

STLB SPEC fills:          0  NON-SPEC fills:          0
STLB Test counter :          0
STLB Leapfrog:          0
STLB MSHR merge:          0
STLB TOTAL     ACCESS:    4043492  HIT:    4027991  MISS:      15501  HIT %:    99.6166  MISS %:   0.383357   MPKI: 0.077505
STLB LOAD TRANSLATION NON_SPEC    ACCESS:      71527  HIT:      56026  MISS:      15501  HIT %:    78.3285  MISS %:    21.6715   MPKI: 0.077505
STLB TRANSLATION FROM L1D PREFETCHER NON_SPEC    ACCESS:    3971965  HIT:    3971965  MISS:          0  HIT %:        100  MISS %:          0   MPKI: 0
STLB PREFETCH  REQUESTED:          0  ISSUED:          0  USEFUL:          0  USELESS:          0
STLB USEFUL LOAD PREFETCHES:          0 PREFETCH ISSUED TO LOWER LEVEL:          0  ACCURACY: -nan
STLB TIMELY PREFETCHES:          0 LATE PREFETCHES: 0 DROPPED PREFETCHES: 0
STLB COMMIT LATE PREFETCHES: 0 MISSED OPPORTUNITY: 0 LATE IN PQ: 0 UNCOVERED: 0
STLB COMMIT LATE MSHR PREFETCHES: 0
STLB MPKI TOTAL: 0 MSHR LATE: 0 PQ LATE: 0 COMMIT LATE: 0 MISSED OPPORTUNITY: 0 UNCOVERED: 0
STLB PREFETCHES SAME FILL-ORIGIN LEVEL: 0 DIFFERENT FILL-ORIGIN LEVEL: 0
STLB AVERAGE MISS LATENCY: 214.497 cycles
STLB AVERAGE MISS LATENCY LOAD: -nan cycles
STLB AVERAGE MISS LATENCY PREFETCH: -nan cycles
STLB AVERAGE MSHR OCCUPANCY: 0.00658557
STLB MSHR FULL: 0
STLB RQ	ACCESS:   11646095	FORWARD:          0	MERGED:    7601343	TO_CACHE:    4044752

STLB Hit, L1D data hit: 0
STLB Hit, L2C data hit: 0
STLB Hit, LLC data hit: 0
STLB Hit, LLC data miss: 0
STLB STLB hints to L2: 0
L0D SPEC fills:   31514199  NON-SPEC fills:          0
L0D TimeGuard Request with older TS:     581779 Restricted eviction:     547159 read:    1332219
L0D Test counter :          0
L0D Leapfrog:          0
L0D MSHR merge:    2258327
L0D TOTAL     ACCESS:   45785062  HIT:    7693267  MISS:   38091795  HIT %:     16.803  MISS %:     83.197   MPKI: 190.459
L0D LOAD      TOTAL       ACCESS:   45785062  HIT:    7693267  MISS:   38091795  HIT %:     16.803  MISS %:     83.197   MPKI: 190.459
L0D LOAD      NON_SPEC    ACCESS:    7257159  HIT:    1226453  MISS:    6030706  HIT %:    16.8999  MISS %:    83.1001   MPKI: 30.1535
L0D LOAD      SPEC        ACCESS:   38527903  HIT:    6466814  MISS:   32061089  HIT %:    16.7848  MISS %:    83.2152   MPKI: 160.305
L0D PREFETCH  REQUESTED:          0  ISSUED:          0  USEFUL:          0  USELESS:          0
L0D USEFUL LOAD PREFETCHES:          0 PREFETCH ISSUED TO LOWER LEVEL:          0  ACCURACY: -nan
L0D TIMELY PREFETCHES:          0 LATE PREFETCHES: 0 DROPPED PREFETCHES: 0
L0D COMMIT LATE PREFETCHES: 0 MISSED OPPORTUNITY: 0 LATE IN PQ: 0 UNCOVERED: 0
L0D COMMIT LATE MSHR PREFETCHES: 0
L0D MPKI TOTAL: 201.751 MSHR LATE: 0 PQ LATE: 0 COMMIT LATE: 0 MISSED OPPORTUNITY: 0 UNCOVERED: 0
L0D PREFETCHES SAME FILL-ORIGIN LEVEL: 0 DIFFERENT FILL-ORIGIN LEVEL: 0
L0D AVERAGE MISS LATENCY: 7.4034 cycles
L0D AVERAGE MISS LATENCY LOAD: 7.4034 cycles
L0D AVERAGE MISS LATENCY PREFETCH: -nan cycles
L0D AVERAGE MSHR OCCUPANCY: 1.83167
L0D MSHR FULL: 0.0527747
L0D RQ	ACCESS:   60856149	FORWARD:          0	MERGED:   12812764	TO_CACHE:   48043385
L0D WQ	ACCESS:    8497479	FORWARD:          0	MERGED:          0	TO_CACHE:    8497479

L1D SPEC fills:          0  NON-SPEC fills:      26917
L1D Test counter :     447101
L1D Leapfrog:          0
L1D MSHR merge:     241122
L1D TOTAL     ACCESS:   56887552  HIT:   53674762  MISS:    3212790  HIT %:    94.3524  MISS %:    5.64762   MPKI: 16.0639
L1D LOAD      TOTAL       ACCESS:   38089144  HIT:   37492290  MISS:     596854  HIT %:     98.433  MISS %:    1.56699   MPKI: 2.98427
L1D LOAD      NON_SPEC    ACCESS:    6030490  HIT:    6003573  MISS:      26917  HIT %:    99.5537  MISS %:   0.446348   MPKI: 0.134585
L1D LOAD      SPEC        ACCESS:   32058654  HIT:   31488717  MISS:     569937  HIT %:    98.2222  MISS %:    1.77779   MPKI: 2.84969
L1D RFO       NON_SPEC    ACCESS:    7471288  HIT:    7347701  MISS:     123587  HIT %:    98.3458  MISS %:    1.65416   MPKI: 0.617935
L1D PREFETCH  NON_SPEC    ACCESS:   10140963  HIT:    8168951  MISS:    1972012  HIT %:     80.554  MISS %:     19.446   MPKI: 9.86006
L1D COMMIT LOAD NON_SPEC    ACCESS:     618896  HIT:     596846  MISS:      22050  HIT %:    96.4372  MISS %:     3.5628   MPKI: 0.11025
L1D COMMIT WRITE NON_SPEC    ACCESS:     567261  HIT:      68974  MISS:     498287  HIT %:    12.1591  MISS %:    87.8409   MPKI: 2.49144
L1D PREFETCH  REQUESTED:   16793376  ISSUED:   15582316  USEFUL:    1725882  USELESS:     246117
L1D USEFUL LOAD PREFETCHES:    1725882 PREFETCH ISSUED TO LOWER LEVEL:    2549895  ACCURACY: 67.6844
L1D TIMELY PREFETCHES:    1725882 LATE PREFETCHES: 240036 DROPPED PREFETCHES: 0
L1D COMMIT LATE PREFETCHES: 0 MISSED OPPORTUNITY: 0 LATE IN PQ: 0 UNCOVERED: 0
L1D COMMIT LATE MSHR PREFETCHES: 0
L1D MPKI TOTAL: 2.99752 MSHR LATE: 1.20018 PQ LATE: 0 COMMIT LATE: 0 MISSED OPPORTUNITY: 0 UNCOVERED: 0
L1D PREFETCHES SAME FILL-ORIGIN LEVEL: 2254079 DIFFERENT FILL-ORIGIN LEVEL: 295816
L1D AVERAGE MISS LATENCY: 111.381 cycles
L1D AVERAGE MISS LATENCY LOAD: 138.162 cycles
L1D AVERAGE MISS LATENCY PREFETCH: 113.974 cycles
L1D AVERAGE MSHR OCCUPANCY: 1.40814
L1D MSHR FULL: 0.00925588
L1D RQ	ACCESS:   39317382	FORWARD:          0	MERGED:     522639	TO_CACHE:   38713394
L1D WQ	ACCESS:    8394886	FORWARD:      81349	MERGED:      62504	TO_CACHE:    8332382
L1D PQ	ACCESS:   15582316	FORWARD:          0	MERGED:    4007748	TO_CACHE:   11574568

L1D UNIQUE REGIONS ACCESSED: 0
L1D REGIONS CONFLICTS: 0
L1D Cross Page Prefetch Requests: 0
L1D Same Page Prefetch Requests: 21337902
L1D ROI Sum of L1D PQ occupancy: 203841083
L1D PREFETCHES PUSHED FROM L2C: 0
L1I SPEC fills:          0  NON-SPEC fills:          0
L1I Test counter :          0
L1I Leapfrog:          0
L1I MSHR merge:       2460
L1I TOTAL     ACCESS:   34212996  HIT:   34208198  MISS:       4798  HIT %:     99.986  MISS %:  0.0140239   MPKI: 0.02399
L1I LOAD      TOTAL       ACCESS:   34212996  HIT:   34208198  MISS:       4798  HIT %:     99.986  MISS %:  0.0140239   MPKI: 0.02399
L1I LOAD      NON_SPEC    ACCESS:   34212996  HIT:   34208198  MISS:       4798  HIT %:     99.986  MISS %:  0.0140239   MPKI: 0.02399
L1I PREFETCH  REQUESTED:          0  ISSUED:          0  USEFUL:          0  USELESS:          0
L1I USEFUL LOAD PREFETCHES:          0 PREFETCH ISSUED TO LOWER LEVEL:          0  ACCURACY: -nan
L1I TIMELY PREFETCHES:          0 LATE PREFETCHES: 0 DROPPED PREFETCHES: 0
L1I COMMIT LATE PREFETCHES: 0 MISSED OPPORTUNITY: 0 LATE IN PQ: 0 UNCOVERED: 0
L1I COMMIT LATE MSHR PREFETCHES: 0
L1I MPKI TOTAL: 0.03629 MSHR LATE: 0 PQ LATE: 0 COMMIT LATE: 0 MISSED OPPORTUNITY: 0 UNCOVERED: 0
L1I PREFETCHES SAME FILL-ORIGIN LEVEL: 0 DIFFERENT FILL-ORIGIN LEVEL: 0
L1I AVERAGE MISS LATENCY: 230.252 cycles
L1I AVERAGE MISS LATENCY LOAD: 230.252 cycles
L1I AVERAGE MISS LATENCY PREFETCH: -nan cycles
L1I AVERAGE MSHR OCCUPANCY: 0.000184566
L1I MSHR FULL: 0
L1I RQ	ACCESS:   51056682	FORWARD:          0	MERGED:   16841225	TO_CACHE:   34215457

BTB SPEC fills:          0  NON-SPEC fills:          0
BTB Test counter :          0
BTB Leapfrog:          0
BTB MSHR merge:          0
BTB TOTAL     ACCESS:    8324261  HIT:    8322678  MISS:       1583  HIT %:     99.981  MISS %:  0.0190167   MPKI: 0.007915
BTB BRANCH_DIRECT_JUMP	ACCESS:     290669  HIT:     290546  MISS:        123
BTB BRANCH_INDIRECT	ACCESS:         14  HIT:          6  MISS:          8
BTB BRANCH_CONDITIONAL	ACCESS:    7471641  HIT:    7470905  MISS:        736
BTB BRANCH_DIRECT_CALL	ACCESS:     280969  HIT:     280663  MISS:        306
BTB BRANCH_INDIRECT_CALL	ACCESS:          0  HIT:          0  MISS:          0
BTB BRANCH_RETURN	ACCESS:     280968  HIT:     280558  MISS:        410
BTB BRANCH_OTHER ACCESS:          0  HIT:          0  MISS:          0

L2C SPEC fills:          0  NON-SPEC fills:       8290
L2C Test counter :     419927
L2C Leapfrog:          0
L2C MSHR merge:       9550
L2C TOTAL     ACCESS:    3988420  HIT:    1988018  MISS:    2000402  HIT %:    49.8448  MISS %:    50.1552   MPKI: 10.002
L2C LOAD      TOTAL       ACCESS:     363116  HIT:     156391  MISS:     206725  HIT %:    43.0692  MISS %:    56.9308   MPKI: 1.03363
L2C LOAD      NON_SPEC    ACCESS:      18459  HIT:       5371  MISS:      13088  HIT %:    29.0969  MISS %:    70.9031   MPKI: 0.06544
L2C LOAD      SPEC        ACCESS:     344657  HIT:     151020  MISS:     193637  HIT %:    43.8175  MISS %:    56.1825   MPKI: 0.968185
L2C RFO       NON_SPEC    ACCESS:      81558  HIT:      16275  MISS:      65283  HIT %:    19.9551  MISS %:    80.0449   MPKI: 0.326415
L2C PREFETCH  NON_SPEC    ACCESS:    2439073  HIT:     881752  MISS:    1557321  HIT %:    36.1511  MISS %:    63.8489   MPKI: 7.7866
L2C WRITEBACK NON_SPEC    ACCESS:     559589  HIT:     557195  MISS:       2394  HIT %:    99.5722  MISS %:   0.427814   MPKI: 0.01197
L2C CLEAN_EVICTION NON_SPEC    ACCESS:     447100  HIT:     289037  MISS:     158063  HIT %:    64.6471  MISS %:    35.3529   MPKI: 0.790315
L2C COMMIT LOAD NON_SPEC    ACCESS:      20485  HIT:      12735  MISS:       7750  HIT %:    62.1674  MISS %:    37.8326   MPKI: 0.03875
L2C LOAD TRANSLATION NON_SPEC    ACCESS:      77499  HIT:      74633  MISS:       2866  HIT %:    96.3019  MISS %:    3.69811   MPKI: 0.01433
L2C PREFETCH  REQUESTED:          0  ISSUED:          0  USEFUL:      65446  USELESS:    1491893
L2C USEFUL LOAD PREFETCHES:      65446 PREFETCH ISSUED TO LOWER LEVEL:    1584861  ACCURACY: 4.12945
L2C TIMELY PREFETCHES:      65446 LATE PREFETCHES: 27537 DROPPED PREFETCHES: 0
L2C COMMIT LATE PREFETCHES: 0 MISSED OPPORTUNITY: 0 LATE IN PQ: 0 UNCOVERED: 0
L2C COMMIT LATE MSHR PREFETCHES: 0
L2C MPKI TOTAL: 1.03362 MSHR LATE: 0.137685 PQ LATE: 0 COMMIT LATE: 0 MISSED OPPORTUNITY: 0 UNCOVERED: 0
L2C PREFETCHES SAME FILL-ORIGIN LEVEL: 173720 DIFFERENT FILL-ORIGIN LEVEL: 0
L2C AVERAGE MISS LATENCY: 215.848 cycles
L2C AVERAGE MISS LATENCY LOAD: 190.952 cycles
L2C AVERAGE MISS LATENCY PREFETCH: 222.796 cycles
L2C AVERAGE MSHR OCCUPANCY: 26.7078
L2C MSHR FULL: 0.78613
L2C RQ	ACCESS:     542723	FORWARD:          0	MERGED:          0	TO_CACHE:     542657
L2C WQ	ACCESS:    1006874	FORWARD:        177	MERGED:        185	TO_CACHE:    1006689
L2C PQ	ACCESS:    2519266	FORWARD:          0	MERGED:       2153	TO_CACHE:    2517002

L2C Instructions Evicting Data 4771
L2C Translations Evicting Data 2858
L2C Data Evicting Data 1631829
L2C Instructions Evicting Instructions 15
L2C Translations Evicting Instructions 6
L2C Data Evicting Instructions 4347
L2C Instructions Evicting Translations 12
L2C Translations Evicting Translations 2
L2C Data Evicting Translations 2468
L2C Dense regions hint from L2: 0
PSCL5 SPEC fills:          0  NON-SPEC fills:          0
PSCL5 Test counter :          0
PSCL5 Leapfrog:          0
PSCL5 MSHR merge:          0
PSCL5 TOTAL     ACCESS:          0  HIT:          0  MISS:          0  HIT %:       -nan  MISS %:       -nan   MPKI: 0
PSCL5 PREFETCH  REQUESTED:          0  ISSUED:          0  USEFUL:          0  USELESS:          0
PSCL5 USEFUL LOAD PREFETCHES:          0 PREFETCH ISSUED TO LOWER LEVEL:          0  ACCURACY: -nan
PSCL5 TIMELY PREFETCHES:          0 LATE PREFETCHES: 0 DROPPED PREFETCHES: 0
PSCL5 COMMIT LATE PREFETCHES: 0 MISSED OPPORTUNITY: 0 LATE IN PQ: 0 UNCOVERED: 0
PSCL5 COMMIT LATE MSHR PREFETCHES: 0
PSCL5 MPKI TOTAL: 0 MSHR LATE: 0 PQ LATE: 0 COMMIT LATE: 0 MISSED OPPORTUNITY: 0 UNCOVERED: 0
PSCL5 PREFETCHES SAME FILL-ORIGIN LEVEL: 0 DIFFERENT FILL-ORIGIN LEVEL: 0

PSCL4 SPEC fills:          0  NON-SPEC fills:          0
PSCL4 Test counter :          0
PSCL4 Leapfrog:          0
PSCL4 MSHR merge:          0
PSCL4 TOTAL     ACCESS:          0  HIT:          0  MISS:          0  HIT %:       -nan  MISS %:       -nan   MPKI: 0
PSCL4 PREFETCH  REQUESTED:          0  ISSUED:          0  USEFUL:          0  USELESS:          0
PSCL4 USEFUL LOAD PREFETCHES:          0 PREFETCH ISSUED TO LOWER LEVEL:          0  ACCURACY: -nan
PSCL4 TIMELY PREFETCHES:          0 LATE PREFETCHES: 0 DROPPED PREFETCHES: 0
PSCL4 COMMIT LATE PREFETCHES: 0 MISSED OPPORTUNITY: 0 LATE IN PQ: 0 UNCOVERED: 0
PSCL4 COMMIT LATE MSHR PREFETCHES: 0
PSCL4 MPKI TOTAL: 0 MSHR LATE: 0 PQ LATE: 0 COMMIT LATE: 0 MISSED OPPORTUNITY: 0 UNCOVERED: 0
PSCL4 PREFETCHES SAME FILL-ORIGIN LEVEL: 0 DIFFERENT FILL-ORIGIN LEVEL: 0

PSCL3 SPEC fills:          0  NON-SPEC fills:          0
PSCL3 Test counter :          0
PSCL3 Leapfrog:          0
PSCL3 MSHR merge:          0
PSCL3 TOTAL     ACCESS:          0  HIT:          0  MISS:          0  HIT %:       -nan  MISS %:       -nan   MPKI: 0
PSCL3 PREFETCH  REQUESTED:          0  ISSUED:          0  USEFUL:          0  USELESS:          0
PSCL3 USEFUL LOAD PREFETCHES:          0 PREFETCH ISSUED TO LOWER LEVEL:          0  ACCURACY: -nan
PSCL3 TIMELY PREFETCHES:          0 LATE PREFETCHES: 0 DROPPED PREFETCHES: 0
PSCL3 COMMIT LATE PREFETCHES: 0 MISSED OPPORTUNITY: 0 LATE IN PQ: 0 UNCOVERED: 0
PSCL3 COMMIT LATE MSHR PREFETCHES: 0
PSCL3 MPKI TOTAL: 0 MSHR LATE: 0 PQ LATE: 0 COMMIT LATE: 0 MISSED OPPORTUNITY: 0 UNCOVERED: 0
PSCL3 PREFETCHES SAME FILL-ORIGIN LEVEL: 0 DIFFERENT FILL-ORIGIN LEVEL: 0

PSCL2 SPEC fills:          0  NON-SPEC fills:          0
PSCL2 Test counter :          0
PSCL2 Leapfrog:          0
PSCL2 MSHR merge:          0
PSCL2 TOTAL     ACCESS:          0  HIT:          0  MISS:          0  HIT %:       -nan  MISS %:       -nan   MPKI: 0
PSCL2 PREFETCH  REQUESTED:          0  ISSUED:          0  USEFUL:          0  USELESS:          0
PSCL2 USEFUL LOAD PREFETCHES:          0 PREFETCH ISSUED TO LOWER LEVEL:          0  ACCURACY: -nan
PSCL2 TIMELY PREFETCHES:          0 LATE PREFETCHES: 0 DROPPED PREFETCHES: 0
PSCL2 COMMIT LATE PREFETCHES: 0 MISSED OPPORTUNITY: 0 LATE IN PQ: 0 UNCOVERED: 0
PSCL2 COMMIT LATE MSHR PREFETCHES: 0
PSCL2 MPKI TOTAL: 0 MSHR LATE: 0 PQ LATE: 0 COMMIT LATE: 0 MISSED OPPORTUNITY: 0 UNCOVERED: 0
PSCL2 PREFETCHES SAME FILL-ORIGIN LEVEL: 0 DIFFERENT FILL-ORIGIN LEVEL: 0

LLC SPEC fills:          0  NON-SPEC fills:       5727
LLC Test counter :     378156
LLC Leapfrog:          0
LLC MSHR merge:          0
LLC TOTAL     ACCESS:    2729970  HIT:    1216721  MISS:    1513249  HIT %:     44.569  MISS %:     55.431   MPKI: 7.56625
LLC LOAD      TOTAL       ACCESS:     197172  HIT:      48307  MISS:     148865  HIT %:    24.4999  MISS %:    75.5001   MPKI: 0.744325
LLC LOAD      NON_SPEC    ACCESS:      12982  HIT:       2457  MISS:      10525  HIT %:    18.9262  MISS %:    81.0738   MPKI: 0.052625
LLC LOAD      SPEC        ACCESS:     184190  HIT:      45850  MISS:     138340  HIT %:    24.8928  MISS %:    75.1072   MPKI: 0.6917
LLC RFO       NON_SPEC    ACCESS:      47420  HIT:       6227  MISS:      41193  HIT %:    13.1316  MISS %:    86.8684   MPKI: 0.205965
LLC PREFETCH  NON_SPEC    ACCESS:    1584858  HIT:     389073  MISS:    1195785  HIT %:    24.5494  MISS %:    75.4506   MPKI: 5.97893
LLC WRITEBACK NON_SPEC    ACCESS:     470102  HIT:     468743  MISS:       1359  HIT %:    99.7109  MISS %:   0.289086   MPKI: 0.006795
LLC CLEAN_EVICTION NON_SPEC    ACCESS:     419927  HIT:     299462  MISS:     120465  HIT %:    71.3129  MISS %:    28.6871   MPKI: 0.602325
LLC COMMIT LOAD NON_SPEC    ACCESS:       7625  HIT:       4683  MISS:       2942  HIT %:    61.4164  MISS %:    38.5836   MPKI: 0.01471
LLC LOAD TRANSLATION NON_SPEC    ACCESS:       2866  HIT:        226  MISS:       2640  HIT %:    7.88555  MISS %:    92.1144   MPKI: 0.0132
LLC PREFETCH  REQUESTED:          0  ISSUED:          0  USEFUL:      28760  USELESS:    1163001
LLC USEFUL LOAD PREFETCHES:      28760 PREFETCH ISSUED TO LOWER LEVEL:    1195788  ACCURACY: 2.40511
LLC TIMELY PREFETCHES:      28760 LATE PREFETCHES: 0 DROPPED PREFETCHES: 0
LLC COMMIT LATE PREFETCHES: 0 MISSED OPPORTUNITY: 0 LATE IN PQ: 0 UNCOVERED: 0
LLC COMMIT LATE MSHR PREFETCHES: 0
LLC MPKI TOTAL: 0.744325 MSHR LATE: 0 PQ LATE: 0 COMMIT LATE: 0 MISSED OPPORTUNITY: 0 UNCOVERED: 0
LLC PREFETCHES SAME FILL-ORIGIN LEVEL: 0 DIFFERENT FILL-ORIGIN LEVEL: 0
LLC AVERAGE MISS LATENCY: 253.375 cycles
LLC AVERAGE MISS LATENCY LOAD: 217.106 cycles
LLC AVERAGE MISS LATENCY PREFETCH: 267.115 cycles
LLC AVERAGE MSHR OCCUPANCY: 6.20313
LLC MSHR FULL: 0
LLC RQ	ACCESS:     255086	FORWARD:          0	MERGED:          0	TO_CACHE:     255082
LLC WQ	ACCESS:     890029	FORWARD:          4	MERGED:          0	TO_CACHE:     890029
LLC PQ	ACCESS:    1584861	FORWARD:          0	MERGED:          0	TO_CACHE:    1584861

LLC Dense regions hint to LLC: 0

RAW hits: 193078
Loads Generated: 61049229
Loads sent to L1D: 60856149
Stores Generated: 8497471
Stores sent to L1D: 8497479
Major fault: 0 Minor fault: 8737
Allocated PAGES: 8737
Total Load insts: 77049905
Total Non-spec loads: 8118129
Percentage of speculative loads: 89.4638

LeapFrogging counter: 439142
Commit hits: 30991447 miss: 22171496
Commit hit %: 58.2952 miss %: 41.7048
Commits not translated: 0
Loads retired: 596854
Stores retired: 8497479
Cache fills: 596854
L1D response latency: 138.162 cycles
Load retirement latency: 256.362 cycles
OOO test counter: 0
Discarded buffer inserts: 30991447 hits: 10195 hit %: 0.0328962
Speculative prefetch buffer size: 0
CPU 0 L1D PC-based stride prefetcher final stats
Degree: 3

DRAM Statistics
 CHANNEL 0
 RQ ROW_BUFFER_HIT:     281973  ROW_BUFFER_MISS:    1109383
 DBUS_CONGESTED:        574
 WQ ROW_BUFFER_HIT:     178486  ROW_BUFFER_MISS:     519003  FULL:      20642

 AVG_CONGESTED_CYCLE: 4
 All warmup complete: 2
Channel 0 Bank busy for read cycles: 0
Channel 0 Bank busy for write cycles: 0
Channel 0
Rank 0
0banks busy for read cycles: 109722678
0banks busy for write cycles: 90026
1banks busy for read cycles: 33141645
1banks busy for write cycles: 12451871
2banks busy for read cycles: 14217731
2banks busy for write cycles: 3193823
3banks busy for read cycles: 13295270
3banks busy for write cycles: 1764641
4banks busy for read cycles: 6912066
4banks busy for write cycles: 1331779
5banks busy for read cycles: 4176457
5banks busy for write cycles: 880929
6banks busy for read cycles: 2516951
6banks busy for write cycles: 826880
7banks busy for read cycles: 1241349
7banks busy for write cycles: 1657110
8banks busy for read cycles: 1467601
8banks busy for write cycles: 12006506

CPU 0 Branch Prediction Accuracy: 99.8281% MPKI: 0.09468 Average ROB Occupancy at Mispredict: 160.592
Branch types
NOT_BRANCH: 188985980 94.493%
BRANCH_DIRECT_JUMP: 290669 0.145335%
BRANCH_INDIRECT: 14 7e-06%
BRANCH_CONDITIONAL: 10161052 5.08053%
BRANCH_DIRECT_CALL: 280969 0.140485%
BRANCH_INDIRECT_CALL: 0 0%
BRANCH_RETURN: 280968 0.140484%
BRANCH_OTHER: 0 0%

DRAM PAGES: 1048576
Allocated PAGES: 8737
