
*** ChampSim Multicore Out-of-Order Simulator ***

Warmup Instructions: 50000000
Simulation Instructions: 200000000
Number of CPUs: 1
LLC sets: 2048
LLC ways: 16
L0D sets: 16
L0D ways: 2
ROB size: 352
LQ size: 128
SQ size: 72
Secure Berti: OFF
Berti: OFF
Berti Fill: OFF
On commit prefetching: ON
Hit-based filter: ON
Time-guarding: ON
Free-slotting: ON
Leap-frogging: ON
Train prefetcher on L0D bypass: OFF
No translation penalty for prefetchers: OFF
Prefetch to L0D only: OFF
Prefetch to L1D only: OFF
Clean evictions: ON
Commit loads: ON
Commit write: ON
Fill commit loads to L2C, LLC: ON
DRAM IO FREQUENCY: 6400
ROB SIZE: 352
Off-chip DRAM Size: 4096 MB Channels: 1 Width: 64-bit Data Rate: 6400 MT/s
CPU 0 runs /home/sumon/secure_berti/GhostMinion/../../traces/spec/621.wrf_s-6673B.champsimtrace.xz
.xz
BTB has LRU replacement policy
ITLB has LRU replacement policy
DTLB has LRU replacement policy
STLB has LRU replacement policy
L1I has LRU replacement policy
L0D has LRU replacement policy
CPU 0 L1D IP-based stride prefetcher
L1D has LRU replacement policy
L2C has LRU replacement policy
LLC has LRU replacement policy
Heartbeat CPU 0 instructions: 10000002 cycles: 5230327 heartbeat IPC: 1.91193 cumulative IPC: 1.91193 (Simulation time: 0 hr 0 min 39 sec) 
Heartbeat CPU 0 instructions: 20000002 cycles: 8421098 heartbeat IPC: 3.13404 cumulative IPC: 2.37499 (Simulation time: 0 hr 1 min 11 sec) 
Heartbeat CPU 0 instructions: 30000001 cycles: 11523713 heartbeat IPC: 3.22309 cumulative IPC: 2.60333 (Simulation time: 0 hr 1 min 38 sec) 
Heartbeat CPU 0 instructions: 40000002 cycles: 14590790 heartbeat IPC: 3.26043 cumulative IPC: 2.74146 (Simulation time: 0 hr 2 min 10 sec) 
Heartbeat CPU 0 instructions: 50000001 cycles: 17679520 heartbeat IPC: 3.23758 cumulative IPC: 2.82813 (Simulation time: 0 hr 2 min 41 sec) 

Warmup complete CPU 0 instructions: 50000001 cycles: 17679520 (Simulation time: 0 hr 2 min 41 sec) 

Heartbeat CPU 0 instructions: 60000001 cycles: 34045138 heartbeat IPC: 0.611037 cumulative IPC: 0.611037 (Simulation time: 0 hr 3 min 27 sec) 
Heartbeat CPU 0 instructions: 70000000 cycles: 53037859 heartbeat IPC: 0.526517 cumulative IPC: 0.565637 (Simulation time: 0 hr 4 min 17 sec) 
Heartbeat CPU 0 instructions: 80000000 cycles: 68734664 heartbeat IPC: 0.637072 cumulative IPC: 0.5876 (Simulation time: 0 hr 4 min 58 sec) 
Heartbeat CPU 0 instructions: 90000003 cycles: 83570428 heartbeat IPC: 0.674047 cumulative IPC: 0.607064 (Simulation time: 0 hr 5 min 43 sec) 
Heartbeat CPU 0 instructions: 100000000 cycles: 106703598 heartbeat IPC: 0.43228 cumulative IPC: 0.561646 (Simulation time: 0 hr 6 min 37 sec) 
Heartbeat CPU 0 instructions: 110000000 cycles: 115124437 heartbeat IPC: 1.18753 cumulative IPC: 0.615732 (Simulation time: 0 hr 7 min 8 sec) 
Heartbeat CPU 0 instructions: 120000003 cycles: 125960613 heartbeat IPC: 0.922835 cumulative IPC: 0.646466 (Simulation time: 0 hr 7 min 42 sec) 
Heartbeat CPU 0 instructions: 130000000 cycles: 135103286 heartbeat IPC: 1.09377 cumulative IPC: 0.681293 (Simulation time: 0 hr 8 min 12 sec) 
Heartbeat CPU 0 instructions: 140000001 cycles: 144961479 heartbeat IPC: 1.01438 cumulative IPC: 0.707092 (Simulation time: 0 hr 8 min 46 sec) 
Heartbeat CPU 0 instructions: 150000001 cycles: 155414027 heartbeat IPC: 0.956705 cumulative IPC: 0.726034 (Simulation time: 0 hr 9 min 17 sec) 
Heartbeat CPU 0 instructions: 160000001 cycles: 164445404 heartbeat IPC: 1.10725 cumulative IPC: 0.749493 (Simulation time: 0 hr 9 min 49 sec) 
Heartbeat CPU 0 instructions: 170000001 cycles: 175255234 heartbeat IPC: 0.925084 cumulative IPC: 0.761539 (Simulation time: 0 hr 10 min 22 sec) 
Heartbeat CPU 0 instructions: 180000000 cycles: 184213771 heartbeat IPC: 1.11625 cumulative IPC: 0.78062 (Simulation time: 0 hr 10 min 52 sec) 
Heartbeat CPU 0 instructions: 190000000 cycles: 197410812 heartbeat IPC: 0.757746 cumulative IPC: 0.778941 (Simulation time: 0 hr 11 min 30 sec) 
Heartbeat CPU 0 instructions: 200000003 cycles: 209491712 heartbeat IPC: 0.827753 cumulative IPC: 0.782015 (Simulation time: 0 hr 12 min 6 sec) 
Heartbeat CPU 0 instructions: 210000000 cycles: 221620062 heartbeat IPC: 0.824514 cumulative IPC: 0.784542 (Simulation time: 0 hr 12 min 43 sec) 
Heartbeat CPU 0 instructions: 220000000 cycles: 233875653 heartbeat IPC: 0.815954 cumulative IPC: 0.786323 (Simulation time: 0 hr 13 min 20 sec) 
Heartbeat CPU 0 instructions: 230000000 cycles: 250029645 heartbeat IPC: 0.619042 cumulative IPC: 0.774693 (Simulation time: 0 hr 13 min 59 sec) 
Heartbeat CPU 0 instructions: 240000000 cycles: 265061679 heartbeat IPC: 0.665246 cumulative IPC: 0.768042 (Simulation time: 0 hr 14 min 41 sec) 
Heartbeat CPU 0 instructions: 250000000 cycles: 273612695 heartbeat IPC: 1.16945 cumulative IPC: 0.781454 (Simulation time: 0 hr 15 min 10 sec) 
Finished CPU 0 instructions: 200000003 cycles: 255933176 cumulative IPC: 0.781454 (Simulation time: 0 hr 15 min 10 sec) 
 Instruction ID: 250000091

ChampSim completed all CPUs

Region of Interest Statistics

CPU 0 cumulative IPC: 0.781454 instructions: 200000003 cycles: 255933176
ITLB SPEC fills:          0  NON-SPEC fills:          0
ITLB Test counter :          0
ITLB Leapfrog:          0
ITLB MSHR merge:          0
ITLB TOTAL     ACCESS:   29114634  HIT:   29114463  MISS:        171  HIT %:    99.9994  MISS %: 0.000587334   MPKI: 0.000855
ITLB LOAD TRANSLATION NON_SPEC    ACCESS:   29114634  HIT:   29114463  MISS:        171  HIT %:    99.9994  MISS %: 0.000587334   MPKI: 0.000855
ITLB PREFETCH  REQUESTED:          0  ISSUED:          0  USEFUL:          0  USELESS:          0
ITLB USEFUL LOAD PREFETCHES:          0 PREFETCH ISSUED TO LOWER LEVEL:          0  ACCURACY: -nan
ITLB TIMELY PREFETCHES:          0 LATE PREFETCHES: 0 DROPPED PREFETCHES: 0
ITLB COMMIT LATE PREFETCHES: 0 MISSED OPPORTUNITY: 0 LATE IN PQ: 0 UNCOVERED: 0
ITLB COMMIT LATE MSHR PREFETCHES: 0
ITLB MPKI TOTAL: 0 MSHR LATE: 0 PQ LATE: 0 COMMIT LATE: 0 MISSED OPPORTUNITY: 0 UNCOVERED: 0
ITLB PREFETCHES SAME FILL-ORIGIN LEVEL: 0 DIFFERENT FILL-ORIGIN LEVEL: 0
ITLB AVERAGE MISS LATENCY: 349.216 cycles
ITLB AVERAGE MISS LATENCY LOAD: -nan cycles
ITLB AVERAGE MISS LATENCY PREFETCH: -nan cycles
ITLB AVERAGE MSHR OCCUPANCY: 2.33559e-06
ITLB MSHR FULL: 0
ITLB RQ	ACCESS:   35273942	FORWARD:          0	MERGED:    6159251	TO_CACHE:   29114691

DTLB SPEC fills:          0  NON-SPEC fills:          0
DTLB Test counter :          0
DTLB Leapfrog:          0
DTLB MSHR merge:          0
DTLB TOTAL     ACCESS:   50000898  HIT:   49802408  MISS:     198490  HIT %:     99.603  MISS %:   0.396973   MPKI: 0.99245
DTLB LOAD TRANSLATION NON_SPEC    ACCESS:   50000898  HIT:   49802408  MISS:     198490  HIT %:     99.603  MISS %:   0.396973   MPKI: 0.99245
DTLB PREFETCH  REQUESTED:          0  ISSUED:          0  USEFUL:          0  USELESS:          0
DTLB USEFUL LOAD PREFETCHES:          0 PREFETCH ISSUED TO LOWER LEVEL:          0  ACCURACY: -nan
DTLB TIMELY PREFETCHES:          0 LATE PREFETCHES: 0 DROPPED PREFETCHES: 0
DTLB COMMIT LATE PREFETCHES: 0 MISSED OPPORTUNITY: 0 LATE IN PQ: 0 UNCOVERED: 0
DTLB COMMIT LATE MSHR PREFETCHES: 0
DTLB MPKI TOTAL: 0 MSHR LATE: 0 PQ LATE: 0 COMMIT LATE: 0 MISSED OPPORTUNITY: 0 UNCOVERED: 0
DTLB PREFETCHES SAME FILL-ORIGIN LEVEL: 0 DIFFERENT FILL-ORIGIN LEVEL: 0
DTLB AVERAGE MISS LATENCY: 36.4614 cycles
DTLB AVERAGE MISS LATENCY LOAD: -nan cycles
DTLB AVERAGE MISS LATENCY PREFETCH: -nan cycles
DTLB AVERAGE MSHR OCCUPANCY: 0.029141
DTLB MSHR FULL: 0.00131755
DTLB RQ	ACCESS:   57590918	FORWARD:          0	MERGED:    7517920	TO_CACHE:   50072998

STLB SPEC fills:          0  NON-SPEC fills:          0
STLB Test counter :          0
STLB Leapfrog:          0
STLB MSHR merge:          0
STLB TOTAL     ACCESS:    5204161  HIT:    5176560  MISS:      27601  HIT %:    99.4696  MISS %:   0.530364   MPKI: 0.138005
STLB LOAD TRANSLATION NON_SPEC    ACCESS:     198661  HIT:     171060  MISS:      27601  HIT %:    86.1065  MISS %:    13.8935   MPKI: 0.138005
STLB TRANSLATION FROM L1D PREFETCHER NON_SPEC    ACCESS:    5005500  HIT:    5005500  MISS:          0  HIT %:        100  MISS %:          0   MPKI: 0
STLB PREFETCH  REQUESTED:          0  ISSUED:          0  USEFUL:          0  USELESS:          0
STLB USEFUL LOAD PREFETCHES:          0 PREFETCH ISSUED TO LOWER LEVEL:          0  ACCURACY: -nan
STLB TIMELY PREFETCHES:          0 LATE PREFETCHES: 0 DROPPED PREFETCHES: 0
STLB COMMIT LATE PREFETCHES: 0 MISSED OPPORTUNITY: 0 LATE IN PQ: 0 UNCOVERED: 0
STLB COMMIT LATE MSHR PREFETCHES: 0
STLB MPKI TOTAL: 0 MSHR LATE: 0 PQ LATE: 0 COMMIT LATE: 0 MISSED OPPORTUNITY: 0 UNCOVERED: 0
STLB PREFETCHES SAME FILL-ORIGIN LEVEL: 0 DIFFERENT FILL-ORIGIN LEVEL: 0
STLB AVERAGE MISS LATENCY: 199.077 cycles
STLB AVERAGE MISS LATENCY LOAD: -nan cycles
STLB AVERAGE MISS LATENCY PREFETCH: -nan cycles
STLB AVERAGE MSHR OCCUPANCY: 0.00997058
STLB MSHR FULL: 0
STLB RQ	ACCESS:   14681464	FORWARD:          0	MERGED:    9474644	TO_CACHE:    5206820

STLB Hit, L1D data hit: 0
STLB Hit, L2C data hit: 0
STLB Hit, LLC data hit: 0
STLB Hit, LLC data miss: 0
STLB STLB hints to L2: 0
L0D SPEC fills:   30618835  NON-SPEC fills:          0
L0D TimeGuard Request with older TS:     659642 Restricted eviction:     593478 read:    1216074
L0D Test counter :          0
L0D Leapfrog:          0
L0D MSHR merge:    2667782
L0D TOTAL     ACCESS:   44067839  HIT:    7498208  MISS:   36569631  HIT %:    17.0151  MISS %:    82.9849   MPKI: 182.848
L0D LOAD      TOTAL       ACCESS:   44067839  HIT:    7498208  MISS:   36569631  HIT %:    17.0151  MISS %:    82.9849   MPKI: 182.848
L0D LOAD      NON_SPEC    ACCESS:    6270973  HIT:     913191  MISS:    5357782  HIT %:    14.5622  MISS %:    85.4378   MPKI: 26.7889
L0D LOAD      SPEC        ACCESS:   37796866  HIT:    6585017  MISS:   31211849  HIT %:    17.4221  MISS %:    82.5779   MPKI: 156.059
L0D PREFETCH  REQUESTED:          0  ISSUED:          0  USEFUL:          0  USELESS:          0
L0D USEFUL LOAD PREFETCHES:          0 PREFETCH ISSUED TO LOWER LEVEL:          0  ACCURACY: -nan
L0D TIMELY PREFETCHES:          0 LATE PREFETCHES: 0 DROPPED PREFETCHES: 0
L0D COMMIT LATE PREFETCHES: 0 MISSED OPPORTUNITY: 0 LATE IN PQ: 0 UNCOVERED: 0
L0D COMMIT LATE MSHR PREFETCHES: 0
L0D MPKI TOTAL: 196.187 MSHR LATE: 0 PQ LATE: 0 COMMIT LATE: 0 MISSED OPPORTUNITY: 0 UNCOVERED: 0
L0D PREFETCHES SAME FILL-ORIGIN LEVEL: 0 DIFFERENT FILL-ORIGIN LEVEL: 0
L0D AVERAGE MISS LATENCY: 10.5869 cycles
L0D AVERAGE MISS LATENCY LOAD: 10.5869 cycles
L0D AVERAGE MISS LATENCY PREFETCH: -nan cycles
L0D AVERAGE MSHR OCCUPANCY: 2.35232
L0D MSHR FULL: 0.119067
L0D RQ	ACCESS:   58925342	FORWARD:          0	MERGED:   12189719	TO_CACHE:   46735623
L0D WQ	ACCESS:   10855295	FORWARD:          0	MERGED:          0	TO_CACHE:   10855295

L1D SPEC fills:          0  NON-SPEC fills:      34501
L1D Test counter :     845577
L1D Leapfrog:          0
L1D MSHR merge:     459959
L1D TOTAL     ACCESS:   60044093  HIT:   55308774  MISS:    4735319  HIT %:    92.1136  MISS %:     7.8864   MPKI: 23.6766
L1D LOAD      TOTAL       ACCESS:   36562312  HIT:   35469178  MISS:    1093134  HIT %:    97.0102  MISS %:    2.98978   MPKI: 5.46567
L1D LOAD      NON_SPEC    ACCESS:    5357225  HIT:    5322724  MISS:      34501  HIT %:     99.356  MISS %:   0.644009   MPKI: 0.172505
L1D LOAD      SPEC        ACCESS:   31205087  HIT:   30146454  MISS:    1058633  HIT %:    96.6075  MISS %:     3.3925   MPKI: 5.29316
L1D RFO       NON_SPEC    ACCESS:    9321650  HIT:    9092813  MISS:     228837  HIT %:    97.5451  MISS %:     2.4549   MPKI: 1.14418
L1D PREFETCH  NON_SPEC    ACCESS:   11940024  HIT:    9497566  MISS:    2442458  HIT %:    79.5439  MISS %:    20.4561   MPKI: 12.2123
L1D COMMIT LOAD NON_SPEC    ACCESS:    1168744  HIT:    1115566  MISS:      53178  HIT %:      95.45  MISS %:    4.55001   MPKI: 0.26589
L1D COMMIT WRITE NON_SPEC    ACCESS:    1051363  HIT:     133651  MISS:     917712  HIT %:    12.7122  MISS %:    87.2878   MPKI: 4.58856
L1D PREFETCH  REQUESTED:   21140141  ISSUED:   19385391  USEFUL:    2039406  USELESS:     403067
L1D USEFUL LOAD PREFETCHES:    2039406 PREFETCH ISSUED TO LOWER LEVEL:    3655693  ACCURACY: 55.7871
L1D TIMELY PREFETCHES:    2039406 LATE PREFETCHES: 459483 DROPPED PREFETCHES: 0
L1D COMMIT LATE PREFETCHES: 0 MISSED OPPORTUNITY: 0 LATE IN PQ: 0 UNCOVERED: 0
L1D COMMIT LATE MSHR PREFETCHES: 0
L1D MPKI TOTAL: 5.50226 MSHR LATE: 2.29741 PQ LATE: 0 COMMIT LATE: 0 MISSED OPPORTUNITY: 0 UNCOVERED: 0
L1D PREFETCHES SAME FILL-ORIGIN LEVEL: 2973793 DIFFERENT FILL-ORIGIN LEVEL: 681900
L1D AVERAGE MISS LATENCY: 122.638 cycles
L1D AVERAGE MISS LATENCY LOAD: 167.548 cycles
L1D AVERAGE MISS LATENCY PREFETCH: 133.301 cycles
L1D AVERAGE MSHR OCCUPANCY: 2.05131
L1D MSHR FULL: 0.0192888
L1D RQ	ACCESS:   38582838	FORWARD:          0	MERGED:     721989	TO_CACHE:   37756275
L1D WQ	ACCESS:   11022289	FORWARD:     104574	MERGED:     119392	TO_CACHE:   10902897
L1D PQ	ACCESS:   19385391	FORWARD:          0	MERGED:    4902588	TO_CACHE:   14482803

L1D UNIQUE REGIONS ACCESSED: 0
L1D REGIONS CONFLICTS: 0
L1D Cross Page Prefetch Requests: 0
L1D Same Page Prefetch Requests: 26423768
L1D ROI Sum of L1D PQ occupancy: 264449941
L1D PREFETCHES PUSHED FROM L2C: 0
L1I SPEC fills:          0  NON-SPEC fills:          0
L1I Test counter :          0
L1I Leapfrog:          0
L1I MSHR merge:       3018
L1I TOTAL     ACCESS:   35270922  HIT:   35264759  MISS:       6163  HIT %:    99.9825  MISS %:  0.0174733   MPKI: 0.030815
L1I LOAD      TOTAL       ACCESS:   35270922  HIT:   35264759  MISS:       6163  HIT %:    99.9825  MISS %:  0.0174733   MPKI: 0.030815
L1I LOAD      NON_SPEC    ACCESS:   35270922  HIT:   35264759  MISS:       6163  HIT %:    99.9825  MISS %:  0.0174733   MPKI: 0.030815
L1I PREFETCH  REQUESTED:          0  ISSUED:          0  USEFUL:          0  USELESS:          0
L1I USEFUL LOAD PREFETCHES:          0 PREFETCH ISSUED TO LOWER LEVEL:          0  ACCURACY: -nan
L1I TIMELY PREFETCHES:          0 LATE PREFETCHES: 0 DROPPED PREFETCHES: 0
L1I COMMIT LATE PREFETCHES: 0 MISSED OPPORTUNITY: 0 LATE IN PQ: 0 UNCOVERED: 0
L1I COMMIT LATE MSHR PREFETCHES: 0
L1I MPKI TOTAL: 0.045905 MSHR LATE: 0 PQ LATE: 0 COMMIT LATE: 0 MISSED OPPORTUNITY: 0 UNCOVERED: 0
L1I PREFETCHES SAME FILL-ORIGIN LEVEL: 0 DIFFERENT FILL-ORIGIN LEVEL: 0
L1I AVERAGE MISS LATENCY: 239.878 cycles
L1I AVERAGE MISS LATENCY LOAD: 239.878 cycles
L1I AVERAGE MISS LATENCY PREFETCH: -nan cycles
L1I AVERAGE MSHR OCCUPANCY: 0.000231729
L1I MSHR FULL: 0
L1I RQ	ACCESS:   52176623	FORWARD:          0	MERGED:   16902681	TO_CACHE:   35273942

BTB SPEC fills:          0  NON-SPEC fills:          0
BTB Test counter :          0
BTB Leapfrog:          0
BTB MSHR merge:          0
BTB TOTAL     ACCESS:    9141034  HIT:    9133637  MISS:       7397  HIT %:    99.9191  MISS %:  0.0809208   MPKI: 0.036985
BTB BRANCH_DIRECT_JUMP	ACCESS:     290387  HIT:     290283  MISS:        104
BTB BRANCH_INDIRECT	ACCESS:         12  HIT:          8  MISS:          4
BTB BRANCH_CONDITIONAL	ACCESS:    8250534  HIT:    8249659  MISS:        875
BTB BRANCH_DIRECT_CALL	ACCESS:     300051  HIT:     299561  MISS:        490
BTB BRANCH_INDIRECT_CALL	ACCESS:          0  HIT:          0  MISS:          0
BTB BRANCH_RETURN	ACCESS:     300050  HIT:     294126  MISS:       5924
BTB BRANCH_OTHER ACCESS:          0  HIT:          0  MISS:          0

L2C SPEC fills:          0  NON-SPEC fills:      11270
L2C Test counter :     800447
L2C Leapfrog:          0
L2C MSHR merge:      28897
L2C TOTAL     ACCESS:    6126812  HIT:    3052283  MISS:    3074529  HIT %:    49.8185  MISS %:    50.1815   MPKI: 15.3726
L2C LOAD      TOTAL       ACCESS:     646525  HIT:     251634  MISS:     394891  HIT %:     38.921  MISS %:     61.079   MPKI: 1.97445
L2C LOAD      NON_SPEC    ACCESS:      25664  HIT:       8231  MISS:      17433  HIT %:    32.0722  MISS %:    67.9278   MPKI: 0.087165
L2C LOAD      SPEC        ACCESS:     620861  HIT:     243403  MISS:     377458  HIT %:    39.2041  MISS %:    60.7959   MPKI: 1.88729
L2C RFO       NON_SPEC    ACCESS:     156986  HIT:      47449  MISS:     109537  HIT %:     30.225  MISS %:     69.775   MPKI: 0.547685
L2C PREFETCH  NON_SPEC    ACCESS:    3390401  HIT:    1150541  MISS:    2239860  HIT %:    33.9352  MISS %:    66.0648   MPKI: 11.1993
L2C WRITEBACK NON_SPEC    ACCESS:     903021  HIT:     901096  MISS:       1925  HIT %:    99.7868  MISS %:   0.213173   MPKI: 0.009625
L2C CLEAN_EVICTION NON_SPEC    ACCESS:     845548  HIT:     536361  MISS:     309187  HIT %:    63.4335  MISS %:    36.5665   MPKI: 1.54593
L2C COMMIT LOAD NON_SPEC    ACCESS:      46335  HIT:      32194  MISS:      14141  HIT %:     69.481  MISS %:     30.519   MPKI: 0.070705
L2C LOAD TRANSLATION NON_SPEC    ACCESS:     137996  HIT:     133008  MISS:       4988  HIT %:    96.3854  MISS %:     3.6146   MPKI: 0.02494
L2C PREFETCH  REQUESTED:          0  ISSUED:          0  USEFUL:     131663  USELESS:    2107235
L2C USEFUL LOAD PREFETCHES:     131663 PREFETCH ISSUED TO LOWER LEVEL:    2308160  ACCURACY: 5.70424
L2C TIMELY PREFETCHES:     131663 LATE PREFETCHES: 68299 DROPPED PREFETCHES: 0
L2C COMMIT LATE PREFETCHES: 0 MISSED OPPORTUNITY: 0 LATE IN PQ: 0 UNCOVERED: 0
L2C COMMIT LATE MSHR PREFETCHES: 0
L2C MPKI TOTAL: 1.97445 MSHR LATE: 0.341495 PQ LATE: 0 COMMIT LATE: 0 MISSED OPPORTUNITY: 0 UNCOVERED: 0
L2C PREFETCHES SAME FILL-ORIGIN LEVEL: 416200 DIFFERENT FILL-ORIGIN LEVEL: 0
L2C AVERAGE MISS LATENCY: 251.804 cycles
L2C AVERAGE MISS LATENCY LOAD: 218.509 cycles
L2C AVERAGE MISS LATENCY PREFETCH: 278.089 cycles
L2C AVERAGE MSHR OCCUPANCY: 24.9323
L2C MSHR FULL: 0.712581
L2C RQ	ACCESS:     987974	FORWARD:          0	MERGED:          0	TO_CACHE:     987842
L2C WQ	ACCESS:    1749011	FORWARD:        256	MERGED:        442	TO_CACHE:    1748569
L2C PQ	ACCESS:    3609803	FORWARD:          0	MERGED:       3103	TO_CACHE:    3606576

L2C Instructions Evicting Data 6137
L2C Translations Evicting Data 4980
L2C Data Evicting Data 2365381
L2C Instructions Evicting Instructions 14
L2C Translations Evicting Instructions 7
L2C Data Evicting Instructions 5269
L2C Instructions Evicting Translations 12
L2C Translations Evicting Translations 1
L2C Data Evicting Translations 4158
L2C Dense regions hint from L2: 0
PSCL5 SPEC fills:          0  NON-SPEC fills:          0
PSCL5 Test counter :          0
PSCL5 Leapfrog:          0
PSCL5 MSHR merge:          0
PSCL5 TOTAL     ACCESS:          0  HIT:          0  MISS:          0  HIT %:       -nan  MISS %:       -nan   MPKI: 0
PSCL5 PREFETCH  REQUESTED:          0  ISSUED:          0  USEFUL:          0  USELESS:          0
PSCL5 USEFUL LOAD PREFETCHES:          0 PREFETCH ISSUED TO LOWER LEVEL:          0  ACCURACY: -nan
PSCL5 TIMELY PREFETCHES:          0 LATE PREFETCHES: 0 DROPPED PREFETCHES: 0
PSCL5 COMMIT LATE PREFETCHES: 0 MISSED OPPORTUNITY: 0 LATE IN PQ: 0 UNCOVERED: 0
PSCL5 COMMIT LATE MSHR PREFETCHES: 0
PSCL5 MPKI TOTAL: 0 MSHR LATE: 0 PQ LATE: 0 COMMIT LATE: 0 MISSED OPPORTUNITY: 0 UNCOVERED: 0
PSCL5 PREFETCHES SAME FILL-ORIGIN LEVEL: 0 DIFFERENT FILL-ORIGIN LEVEL: 0

PSCL4 SPEC fills:          0  NON-SPEC fills:          0
PSCL4 Test counter :          0
PSCL4 Leapfrog:          0
PSCL4 MSHR merge:          0
PSCL4 TOTAL     ACCESS:          0  HIT:          0  MISS:          0  HIT %:       -nan  MISS %:       -nan   MPKI: 0
PSCL4 PREFETCH  REQUESTED:          0  ISSUED:          0  USEFUL:          0  USELESS:          0
PSCL4 USEFUL LOAD PREFETCHES:          0 PREFETCH ISSUED TO LOWER LEVEL:          0  ACCURACY: -nan
PSCL4 TIMELY PREFETCHES:          0 LATE PREFETCHES: 0 DROPPED PREFETCHES: 0
PSCL4 COMMIT LATE PREFETCHES: 0 MISSED OPPORTUNITY: 0 LATE IN PQ: 0 UNCOVERED: 0
PSCL4 COMMIT LATE MSHR PREFETCHES: 0
PSCL4 MPKI TOTAL: 0 MSHR LATE: 0 PQ LATE: 0 COMMIT LATE: 0 MISSED OPPORTUNITY: 0 UNCOVERED: 0
PSCL4 PREFETCHES SAME FILL-ORIGIN LEVEL: 0 DIFFERENT FILL-ORIGIN LEVEL: 0

PSCL3 SPEC fills:          0  NON-SPEC fills:          0
PSCL3 Test counter :          0
PSCL3 Leapfrog:          0
PSCL3 MSHR merge:          0
PSCL3 TOTAL     ACCESS:          0  HIT:          0  MISS:          0  HIT %:       -nan  MISS %:       -nan   MPKI: 0
PSCL3 PREFETCH  REQUESTED:          0  ISSUED:          0  USEFUL:          0  USELESS:          0
PSCL3 USEFUL LOAD PREFETCHES:          0 PREFETCH ISSUED TO LOWER LEVEL:          0  ACCURACY: -nan
PSCL3 TIMELY PREFETCHES:          0 LATE PREFETCHES: 0 DROPPED PREFETCHES: 0
PSCL3 COMMIT LATE PREFETCHES: 0 MISSED OPPORTUNITY: 0 LATE IN PQ: 0 UNCOVERED: 0
PSCL3 COMMIT LATE MSHR PREFETCHES: 0
PSCL3 MPKI TOTAL: 0 MSHR LATE: 0 PQ LATE: 0 COMMIT LATE: 0 MISSED OPPORTUNITY: 0 UNCOVERED: 0
PSCL3 PREFETCHES SAME FILL-ORIGIN LEVEL: 0 DIFFERENT FILL-ORIGIN LEVEL: 0

PSCL2 SPEC fills:          0  NON-SPEC fills:          0
PSCL2 Test counter :          0
PSCL2 Leapfrog:          0
PSCL2 MSHR merge:          0
PSCL2 TOTAL     ACCESS:          0  HIT:          0  MISS:          0  HIT %:       -nan  MISS %:       -nan   MPKI: 0
PSCL2 PREFETCH  REQUESTED:          0  ISSUED:          0  USEFUL:          0  USELESS:          0
PSCL2 USEFUL LOAD PREFETCHES:          0 PREFETCH ISSUED TO LOWER LEVEL:          0  ACCURACY: -nan
PSCL2 TIMELY PREFETCHES:          0 LATE PREFETCHES: 0 DROPPED PREFETCHES: 0
PSCL2 COMMIT LATE PREFETCHES: 0 MISSED OPPORTUNITY: 0 LATE IN PQ: 0 UNCOVERED: 0
PSCL2 COMMIT LATE MSHR PREFETCHES: 0
PSCL2 MPKI TOTAL: 0 MSHR LATE: 0 PQ LATE: 0 COMMIT LATE: 0 MISSED OPPORTUNITY: 0 UNCOVERED: 0
PSCL2 PREFETCHES SAME FILL-ORIGIN LEVEL: 0 DIFFERENT FILL-ORIGIN LEVEL: 0

LLC SPEC fills:          0  NON-SPEC fills:       7891
LLC Test counter :     738768
LLC Leapfrog:          0
LLC MSHR merge:          0
LLC TOTAL     ACCESS:    4229623  HIT:    1689819  MISS:    2539804  HIT %:     39.952  MISS %:     60.048   MPKI: 12.699
LLC LOAD      TOTAL       ACCESS:     365991  HIT:      53675  MISS:     312316  HIT %:    14.6657  MISS %:    85.3343   MPKI: 1.56158
LLC LOAD      NON_SPEC    ACCESS:      17209  HIT:       3155  MISS:      14054  HIT %:    18.3334  MISS %:    81.6666   MPKI: 0.07027
LLC LOAD      SPEC        ACCESS:     348782  HIT:      50520  MISS:     298262  HIT %:    14.4847  MISS %:    85.5153   MPKI: 1.49131
LLC RFO       NON_SPEC    ACCESS:      70351  HIT:       6938  MISS:      63413  HIT %:    9.86198  MISS %:     90.138   MPKI: 0.317065
LLC PREFETCH  NON_SPEC    ACCESS:    2308159  HIT:     414264  MISS:    1893895  HIT %:    17.9478  MISS %:    82.0522   MPKI: 9.46947
LLC WRITEBACK NON_SPEC    ACCESS:     665764  HIT:     663426  MISS:       2338  HIT %:    99.6488  MISS %:   0.351175   MPKI: 0.01169
LLC CLEAN_EVICTION NON_SPEC    ACCESS:     800447  HIT:     547582  MISS:     252865  HIT %:    68.4095  MISS %:    31.5905   MPKI: 1.26432
LLC COMMIT LOAD NON_SPEC    ACCESS:      13923  HIT:       3577  MISS:      10346  HIT %:    25.6913  MISS %:    74.3087   MPKI: 0.05173
LLC LOAD TRANSLATION NON_SPEC    ACCESS:       4988  HIT:        357  MISS:       4631  HIT %:    7.15718  MISS %:    92.8428   MPKI: 0.023155
LLC PREFETCH  REQUESTED:          0  ISSUED:          0  USEFUL:      36273  USELESS:    1856324
LLC USEFUL LOAD PREFETCHES:      36273 PREFETCH ISSUED TO LOWER LEVEL:    1893896  ACCURACY: 1.91526
LLC TIMELY PREFETCHES:      36273 LATE PREFETCHES: 0 DROPPED PREFETCHES: 0
LLC COMMIT LATE PREFETCHES: 0 MISSED OPPORTUNITY: 0 LATE IN PQ: 0 UNCOVERED: 0
LLC COMMIT LATE MSHR PREFETCHES: 0
LLC MPKI TOTAL: 1.56158 MSHR LATE: 0 PQ LATE: 0 COMMIT LATE: 0 MISSED OPPORTUNITY: 0 UNCOVERED: 0
LLC PREFETCHES SAME FILL-ORIGIN LEVEL: 0 DIFFERENT FILL-ORIGIN LEVEL: 0
LLC AVERAGE MISS LATENCY: 278.657 cycles
LLC AVERAGE MISS LATENCY LOAD: 218.981 cycles
LLC AVERAGE MISS LATENCY PREFETCH: 314.719 cycles
LLC AVERAGE MSHR OCCUPANCY: 6.29076
LLC MSHR FULL: 0
LLC RQ	ACCESS:     455258	FORWARD:          0	MERGED:          0	TO_CACHE:     455253
LLC WQ	ACCESS:    1466211	FORWARD:          5	MERGED:          0	TO_CACHE:    1466211
LLC PQ	ACCESS:    2308160	FORWARD:          0	MERGED:          0	TO_CACHE:    2308160

LLC Dense regions hint to LLC: 0

RAW hits: 189932
Loads Generated: 59115277
Loads sent to L1D: 58925342
Stores Generated: 10855289
Stores sent to L1D: 10855295
Major fault: 0 Minor fault: 10671
Allocated PAGES: 10671
Total Load insts: 73542102
Total Non-spec loads: 7435252
Percentage of speculative loads: 89.8898

LeapFrogging counter: 2013559
Commit hits: 30015311 miss: 22126783
Commit hit %: 57.5645 miss %: 42.4355
Commits not translated: 0
Loads retired: 1093134
Stores retired: 10855295
Cache fills: 1093134
L1D response latency: 167.548 cycles
Load retirement latency: 400.298 cycles
OOO test counter: 0
Discarded buffer inserts: 30015311 hits: 20623 hit %: 0.0687083
Speculative prefetch buffer size: 0
CPU 0 L1D PC-based stride prefetcher final stats
Degree: 3

DRAM Statistics
 CHANNEL 0
 RQ ROW_BUFFER_HIT:     515593  ROW_BUFFER_MISS:    1768875
 DBUS_CONGESTED:       1468
 WQ ROW_BUFFER_HIT:     289198  ROW_BUFFER_MISS:     946987  FULL:       9355

 AVG_CONGESTED_CYCLE: 5
 All warmup complete: 2
Channel 0 Bank busy for read cycles: 0
Channel 0 Bank busy for write cycles: 0
Channel 0
Rank 0
0banks busy for read cycles: 102431113
0banks busy for write cycles: 74567
1banks busy for read cycles: 34157127
1banks busy for write cycles: 10416540
2banks busy for read cycles: 19921867
2banks busy for write cycles: 3696279
3banks busy for read cycles: 18470928
3banks busy for write cycles: 2461654
4banks busy for read cycles: 12970993
4banks busy for write cycles: 1940776
5banks busy for read cycles: 8991278
5banks busy for write cycles: 1561279
6banks busy for read cycles: 5825780
6banks busy for write cycles: 1530559
7banks busy for read cycles: 3214000
7banks busy for write cycles: 3314896
8banks busy for read cycles: 2527583
8banks busy for write cycles: 22425958

CPU 0 Branch Prediction Accuracy: 99.8685% MPKI: 0.079065 Average ROB Occupancy at Mispredict: 144.865
Branch types
NOT_BRANCH: 187976341 93.9882%
BRANCH_DIRECT_JUMP: 290387 0.145193%
BRANCH_INDIRECT: 12 6e-06%
BRANCH_CONDITIONAL: 11132877 5.56644%
BRANCH_DIRECT_CALL: 300051 0.150025%
BRANCH_INDIRECT_CALL: 0 0%
BRANCH_RETURN: 300050 0.150025%
BRANCH_OTHER: 0 0%

DRAM PAGES: 1048576
Allocated PAGES: 10671
