
*** ChampSim Multicore Out-of-Order Simulator ***

Warmup Instructions: 50000000
Simulation Instructions: 200000000
Number of CPUs: 1
LLC sets: 2048
LLC ways: 16
L0D sets: 16
L0D ways: 2
ROB size: 352
LQ size: 128
SQ size: 72
Secure Berti: OFF
Berti: OFF
Berti Fill: OFF
On commit prefetching: ON
Hit-based filter: ON
Time-guarding: ON
Free-slotting: ON
Leap-frogging: ON
Train prefetcher on L0D bypass: OFF
No translation penalty for prefetchers: OFF
Prefetch to L0D only: OFF
Prefetch to L1D only: OFF
Clean evictions: ON
Commit loads: ON
Commit write: ON
Fill commit loads to L2C, LLC: ON
DRAM IO FREQUENCY: 6400
ROB SIZE: 352
Off-chip DRAM Size: 4096 MB Channels: 1 Width: 64-bit Data Rate: 6400 MT/s
CPU 0 runs /home/sumon/secure_berti/GhostMinion/../../traces/spec/641.leela_s-1083B.champsimtrace.xz
.xz
BTB has LRU replacement policy
ITLB has LRU replacement policy
DTLB has LRU replacement policy
STLB has LRU replacement policy
L1I has LRU replacement policy
L0D has LRU replacement policy
CPU 0 L1D IP-based stride prefetcher
L1D has LRU replacement policy
L2C has LRU replacement policy
LLC has LRU replacement policy
Heartbeat CPU 0 instructions: 10000000 cycles: 5024446 heartbeat IPC: 1.99027 cumulative IPC: 1.99027 (Simulation time: 0 hr 0 min 40 sec) 
Heartbeat CPU 0 instructions: 20000000 cycles: 10100372 heartbeat IPC: 1.97008 cumulative IPC: 1.98013 (Simulation time: 0 hr 1 min 17 sec) 
Heartbeat CPU 0 instructions: 30000003 cycles: 15229707 heartbeat IPC: 1.94957 cumulative IPC: 1.96983 (Simulation time: 0 hr 1 min 56 sec) 
Heartbeat CPU 0 instructions: 40000003 cycles: 20295835 heartbeat IPC: 1.97389 cumulative IPC: 1.97085 (Simulation time: 0 hr 2 min 34 sec) 
Heartbeat CPU 0 instructions: 50000003 cycles: 25358666 heartbeat IPC: 1.97518 cumulative IPC: 1.97171 (Simulation time: 0 hr 3 min 13 sec) 

Warmup complete CPU 0 instructions: 50000003 cycles: 25358666 (Simulation time: 0 hr 3 min 13 sec) 

Heartbeat CPU 0 instructions: 60000002 cycles: 50497300 heartbeat IPC: 0.397794 cumulative IPC: 0.397794 (Simulation time: 0 hr 3 min 58 sec) 
Heartbeat CPU 0 instructions: 70000000 cycles: 75865799 heartbeat IPC: 0.39419 cumulative IPC: 0.395984 (Simulation time: 0 hr 4 min 45 sec) 
Heartbeat CPU 0 instructions: 80000000 cycles: 100916147 heartbeat IPC: 0.399196 cumulative IPC: 0.397049 (Simulation time: 0 hr 5 min 32 sec) 
Heartbeat CPU 0 instructions: 90000003 cycles: 126620355 heartbeat IPC: 0.389041 cumulative IPC: 0.395016 (Simulation time: 0 hr 6 min 19 sec) 
Heartbeat CPU 0 instructions: 100000002 cycles: 152006753 heartbeat IPC: 0.393912 cumulative IPC: 0.394795 (Simulation time: 0 hr 7 min 8 sec) 
Heartbeat CPU 0 instructions: 110000000 cycles: 176941299 heartbeat IPC: 0.40105 cumulative IPC: 0.395824 (Simulation time: 0 hr 7 min 56 sec) 
Heartbeat CPU 0 instructions: 120000000 cycles: 201785319 heartbeat IPC: 0.402511 cumulative IPC: 0.396765 (Simulation time: 0 hr 8 min 45 sec) 
Heartbeat CPU 0 instructions: 130000001 cycles: 226994234 heartbeat IPC: 0.396685 cumulative IPC: 0.396755 (Simulation time: 0 hr 9 min 34 sec) 
Heartbeat CPU 0 instructions: 140000000 cycles: 252262623 heartbeat IPC: 0.395751 cumulative IPC: 0.396644 (Simulation time: 0 hr 10 min 24 sec) 
Heartbeat CPU 0 instructions: 150000000 cycles: 277313770 heartbeat IPC: 0.399183 cumulative IPC: 0.396896 (Simulation time: 0 hr 11 min 14 sec) 
Heartbeat CPU 0 instructions: 160000000 cycles: 302119322 heartbeat IPC: 0.403136 cumulative IPC: 0.397455 (Simulation time: 0 hr 12 min 5 sec) 
Heartbeat CPU 0 instructions: 170000001 cycles: 327051332 heartbeat IPC: 0.401091 cumulative IPC: 0.397756 (Simulation time: 0 hr 12 min 56 sec) 
Heartbeat CPU 0 instructions: 180000000 cycles: 352160769 heartbeat IPC: 0.398257 cumulative IPC: 0.397794 (Simulation time: 0 hr 13 min 45 sec) 
Heartbeat CPU 0 instructions: 190000001 cycles: 377159557 heartbeat IPC: 0.400019 cumulative IPC: 0.397952 (Simulation time: 0 hr 14 min 33 sec) 
Heartbeat CPU 0 instructions: 200000002 cycles: 402277511 heartbeat IPC: 0.398122 cumulative IPC: 0.397964 (Simulation time: 0 hr 15 min 22 sec) 
Heartbeat CPU 0 instructions: 210000003 cycles: 427823668 heartbeat IPC: 0.391448 cumulative IPC: 0.39755 (Simulation time: 0 hr 16 min 10 sec) 
Heartbeat CPU 0 instructions: 220000000 cycles: 453257352 heartbeat IPC: 0.393179 cumulative IPC: 0.39729 (Simulation time: 0 hr 16 min 56 sec) 
Heartbeat CPU 0 instructions: 230000000 cycles: 478756953 heartbeat IPC: 0.392163 cumulative IPC: 0.397002 (Simulation time: 0 hr 17 min 40 sec) 
Heartbeat CPU 0 instructions: 240000000 cycles: 503889112 heartbeat IPC: 0.397897 cumulative IPC: 0.397049 (Simulation time: 0 hr 18 min 23 sec) 
Heartbeat CPU 0 instructions: 250000000 cycles: 611417289 heartbeat IPC: 0.0929989 cumulative IPC: 0.341263 (Simulation time: 0 hr 20 min 25 sec) 
Finished CPU 0 instructions: 200000000 cycles: 586058880 cumulative IPC: 0.341263 (Simulation time: 0 hr 20 min 25 sec) 
 Instruction ID: 250000385

ChampSim completed all CPUs

Region of Interest Statistics

CPU 0 cumulative IPC: 0.341263 instructions: 200000000 cycles: 586058880
ITLB SPEC fills:          0  NON-SPEC fills:          0
ITLB Test counter :          0
ITLB Leapfrog:          0
ITLB MSHR merge:          0
ITLB TOTAL     ACCESS:   35721725  HIT:   35721563  MISS:        162  HIT %:    99.9995  MISS %: 0.000453506   MPKI: 0.00081
ITLB LOAD TRANSLATION NON_SPEC    ACCESS:   35721725  HIT:   35721563  MISS:        162  HIT %:    99.9995  MISS %: 0.000453506   MPKI: 0.00081
ITLB PREFETCH  REQUESTED:          0  ISSUED:          0  USEFUL:          0  USELESS:          0
ITLB USEFUL LOAD PREFETCHES:          0 PREFETCH ISSUED TO LOWER LEVEL:          0  ACCURACY: -nan
ITLB TIMELY PREFETCHES:          0 LATE PREFETCHES: 0 DROPPED PREFETCHES: 0
ITLB COMMIT LATE PREFETCHES: 0 MISSED OPPORTUNITY: 0 LATE IN PQ: 0 UNCOVERED: 0
ITLB COMMIT LATE MSHR PREFETCHES: 0
ITLB MPKI TOTAL: 0 MSHR LATE: 0 PQ LATE: 0 COMMIT LATE: 0 MISSED OPPORTUNITY: 0 UNCOVERED: 0
ITLB PREFETCHES SAME FILL-ORIGIN LEVEL: 0 DIFFERENT FILL-ORIGIN LEVEL: 0
ITLB AVERAGE MISS LATENCY: 181.858 cycles
ITLB AVERAGE MISS LATENCY LOAD: -nan cycles
ITLB AVERAGE MISS LATENCY PREFETCH: -nan cycles
ITLB AVERAGE MSHR OCCUPANCY: 1.73564e-06
ITLB MSHR FULL: 0
ITLB RQ	ACCESS:   40345406	FORWARD:          0	MERGED:    4623646	TO_CACHE:   35721760

DTLB SPEC fills:          0  NON-SPEC fills:          0
DTLB Test counter :          0
DTLB Leapfrog:          0
DTLB MSHR merge:          0
DTLB TOTAL     ACCESS:   64755691  HIT:   64651833  MISS:     103858  HIT %:    99.8396  MISS %:   0.160384   MPKI: 0.51929
DTLB LOAD TRANSLATION NON_SPEC    ACCESS:   64755691  HIT:   64651833  MISS:     103858  HIT %:    99.8396  MISS %:   0.160384   MPKI: 0.51929
DTLB PREFETCH  REQUESTED:          0  ISSUED:          0  USEFUL:          0  USELESS:          0
DTLB USEFUL LOAD PREFETCHES:          0 PREFETCH ISSUED TO LOWER LEVEL:          0  ACCURACY: -nan
DTLB TIMELY PREFETCHES:          0 LATE PREFETCHES: 0 DROPPED PREFETCHES: 0
DTLB COMMIT LATE PREFETCHES: 0 MISSED OPPORTUNITY: 0 LATE IN PQ: 0 UNCOVERED: 0
DTLB COMMIT LATE MSHR PREFETCHES: 0
DTLB MPKI TOTAL: 0 MSHR LATE: 0 PQ LATE: 0 COMMIT LATE: 0 MISSED OPPORTUNITY: 0 UNCOVERED: 0
DTLB PREFETCHES SAME FILL-ORIGIN LEVEL: 0 DIFFERENT FILL-ORIGIN LEVEL: 0
DTLB AVERAGE MISS LATENCY: 16.8339 cycles
DTLB AVERAGE MISS LATENCY LOAD: -nan cycles
DTLB AVERAGE MISS LATENCY PREFETCH: -nan cycles
DTLB AVERAGE MSHR OCCUPANCY: 0.00166694
DTLB MSHR FULL: 0
DTLB RQ	ACCESS:   72959809	FORWARD:          0	MERGED:    8190415	TO_CACHE:   64769394

STLB SPEC fills:          0  NON-SPEC fills:          0
STLB Test counter :          0
STLB Leapfrog:          0
STLB MSHR merge:          0
STLB TOTAL     ACCESS:    1271037  HIT:    1265159  MISS:       5878  HIT %:    99.5375  MISS %:   0.462457   MPKI: 0.02939
STLB LOAD TRANSLATION NON_SPEC    ACCESS:     104020  HIT:      98147  MISS:       5873  HIT %:     94.354  MISS %:    5.64603   MPKI: 0.029365
STLB TRANSLATION FROM L1D PREFETCHER NON_SPEC    ACCESS:    1167017  HIT:    1167012  MISS:          5  HIT %:    99.9996  MISS %: 0.000428443   MPKI: 2.5e-05
STLB PREFETCH  REQUESTED:          0  ISSUED:          0  USEFUL:          5  USELESS:          0
STLB USEFUL LOAD PREFETCHES:          5 PREFETCH ISSUED TO LOWER LEVEL:          0  ACCURACY: inf
STLB TIMELY PREFETCHES:          5 LATE PREFETCHES: 0 DROPPED PREFETCHES: 0
STLB COMMIT LATE PREFETCHES: 0 MISSED OPPORTUNITY: 0 LATE IN PQ: 0 UNCOVERED: 0
STLB COMMIT LATE MSHR PREFETCHES: 0
STLB MPKI TOTAL: 0 MSHR LATE: 0 PQ LATE: 0 COMMIT LATE: 0 MISSED OPPORTUNITY: 0 UNCOVERED: 0
STLB PREFETCHES SAME FILL-ORIGIN LEVEL: 0 DIFFERENT FILL-ORIGIN LEVEL: 0
STLB AVERAGE MISS LATENCY: 143.081 cycles
STLB AVERAGE MISS LATENCY LOAD: -nan cycles
STLB AVERAGE MISS LATENCY PREFETCH: -nan cycles
STLB AVERAGE MSHR OCCUPANCY: 0.000903133
STLB MSHR FULL: 0
STLB RQ	ACCESS:    3848101	FORWARD:          0	MERGED:    2576971	TO_CACHE:    1271130

STLB Hit, L1D data hit: 0
STLB Hit, L2C data hit: 0
STLB Hit, LLC data hit: 0
STLB Hit, LLC data miss: 0
STLB STLB hints to L2: 0
L0D SPEC fills:   23281980  NON-SPEC fills:          0
L0D TimeGuard Request with older TS:     205535 Restricted eviction:     142298 read:     230470
L0D Test counter :          0
L0D Leapfrog:          0
L0D MSHR merge:     632268
L0D TOTAL     ACCESS:   46647881  HIT:    3328287  MISS:   43319594  HIT %:    7.13492  MISS %:    92.8651   MPKI: 216.598
L0D LOAD      TOTAL       ACCESS:   46647881  HIT:    3328287  MISS:   43319594  HIT %:    7.13492  MISS %:    92.8651   MPKI: 216.598
L0D LOAD      NON_SPEC    ACCESS:   20093716  HIT:     198400  MISS:   19895316  HIT %:   0.987373  MISS %:    99.0126   MPKI: 99.4766
L0D LOAD      SPEC        ACCESS:   26554165  HIT:    3129887  MISS:   23424278  HIT %:    11.7868  MISS %:    88.2132   MPKI: 117.121
L0D PREFETCH  REQUESTED:          0  ISSUED:          0  USEFUL:          0  USELESS:          0
L0D USEFUL LOAD PREFETCHES:          0 PREFETCH ISSUED TO LOWER LEVEL:          0  ACCURACY: -nan
L0D TIMELY PREFETCHES:          0 LATE PREFETCHES: 0 DROPPED PREFETCHES: 0
L0D COMMIT LATE PREFETCHES: 0 MISSED OPPORTUNITY: 0 LATE IN PQ: 0 UNCOVERED: 0
L0D COMMIT LATE MSHR PREFETCHES: 0
L0D MPKI TOTAL: 219.759 MSHR LATE: 0 PQ LATE: 0 COMMIT LATE: 0 MISSED OPPORTUNITY: 0 UNCOVERED: 0
L0D PREFETCHES SAME FILL-ORIGIN LEVEL: 0 DIFFERENT FILL-ORIGIN LEVEL: 0
L0D AVERAGE MISS LATENCY: 6.8503 cycles
L0D AVERAGE MISS LATENCY LOAD: 6.8503 cycles
L0D AVERAGE MISS LATENCY PREFETCH: -nan cycles
L0D AVERAGE MSHR OCCUPANCY: 0.722817
L0D MSHR FULL: 0.0224771
L0D RQ	ACCESS:   53936985	FORWARD:          0	MERGED:    6656839	TO_CACHE:   47280146
L0D WQ	ACCESS:   25679663	FORWARD:          0	MERGED:          0	TO_CACHE:   25679663

L1D SPEC fills:          0  NON-SPEC fills:     525011
L1D Test counter :     108291
L1D Leapfrog:          0
L1D MSHR merge:      14325
L1D TOTAL     ACCESS:   71662328  HIT:   70085710  MISS:    1576618  HIT %:    97.7999  MISS %:    2.20007   MPKI: 7.88309
L1D LOAD      TOTAL       ACCESS:   43319022  HIT:   42557743  MISS:     761279  HIT %:    98.2426  MISS %:    1.75738   MPKI: 3.8064
L1D LOAD      NON_SPEC    ACCESS:   19895079  HIT:   19370068  MISS:     525011  HIT %:    97.3611  MISS %:     2.6389   MPKI: 2.62506
L1D LOAD      SPEC        ACCESS:   23423943  HIT:   23187675  MISS:     236268  HIT %:    98.9913  MISS %:    1.00866   MPKI: 1.18134
L1D RFO       NON_SPEC    ACCESS:   24309851  HIT:   23923428  MISS:     386423  HIT %:    98.4104  MISS %:    1.58957   MPKI: 1.93212
L1D PREFETCH  NON_SPEC    ACCESS:    3572994  HIT:    3379641  MISS:     193353  HIT %:    94.5885  MISS %:    5.41151   MPKI: 0.966765
L1D COMMIT LOAD NON_SPEC    ACCESS:     222744  HIT:     206967  MISS:      15777  HIT %:     92.917  MISS %:    7.08302   MPKI: 0.078885
L1D COMMIT WRITE NON_SPEC    ACCESS:     237717  HIT:      17931  MISS:     219786  HIT %:      7.543  MISS %:     92.457   MPKI: 1.09893
L1D PREFETCH  REQUESTED:    6495415  ISSUED:    6371660  USEFUL:     130829  USELESS:      62575
L1D USEFUL LOAD PREFETCHES:     130829 PREFETCH ISSUED TO LOWER LEVEL:     282473  ACCURACY: 46.3156
L1D TIMELY PREFETCHES:     130829 LATE PREFETCHES: 17962 DROPPED PREFETCHES: 0
L1D COMMIT LATE PREFETCHES: 0 MISSED OPPORTUNITY: 0 LATE IN PQ: 0 UNCOVERED: 0
L1D COMMIT LATE MSHR PREFETCHES: 0
L1D MPKI TOTAL: 3.80925 MSHR LATE: 0.08981 PQ LATE: 0 COMMIT LATE: 0 MISSED OPPORTUNITY: 0 UNCOVERED: 0
L1D PREFETCHES SAME FILL-ORIGIN LEVEL: 231205 DIFFERENT FILL-ORIGIN LEVEL: 51268
L1D AVERAGE MISS LATENCY: 96.1171 cycles
L1D AVERAGE MISS LATENCY LOAD: 98.4386 cycles
L1D AVERAGE MISS LATENCY PREFETCH: 51.7796 cycles
L1D AVERAGE MSHR OCCUPANCY: 0.189564
L1D MSHR FULL: 0.00702801
L1D RQ	ACCESS:   43807465	FORWARD:          0	MERGED:     261060	TO_CACHE:   43542466
L1D WQ	ACCESS:   25916868	FORWARD:       3939	MERGED:     335608	TO_CACHE:   25581260
L1D PQ	ACCESS:    6371660	FORWARD:          0	MERGED:    2627579	TO_CACHE:    3744081

L1D UNIQUE REGIONS ACCESSED: 0
L1D REGIONS CONFLICTS: 0
L1D Cross Page Prefetch Requests: 0
L1D Same Page Prefetch Requests: 7695990
L1D ROI Sum of L1D PQ occupancy: 56222808
L1D PREFETCHES PUSHED FROM L2C: 0
L1I SPEC fills:          0  NON-SPEC fills:          0
L1I Test counter :          0
L1I Leapfrog:          0
L1I MSHR merge:       5479
L1I TOTAL     ACCESS:   40339927  HIT:   40324500  MISS:      15427  HIT %:    99.9618  MISS %:  0.0382425   MPKI: 0.077135
L1I LOAD      TOTAL       ACCESS:   40339927  HIT:   40324500  MISS:      15427  HIT %:    99.9618  MISS %:  0.0382425   MPKI: 0.077135
L1I LOAD      NON_SPEC    ACCESS:   40339927  HIT:   40324500  MISS:      15427  HIT %:    99.9618  MISS %:  0.0382425   MPKI: 0.077135
L1I PREFETCH  REQUESTED:          0  ISSUED:          0  USEFUL:          0  USELESS:          0
L1I USEFUL LOAD PREFETCHES:          0 PREFETCH ISSUED TO LOWER LEVEL:          0  ACCURACY: -nan
L1I TIMELY PREFETCHES:          0 LATE PREFETCHES: 0 DROPPED PREFETCHES: 0
L1I COMMIT LATE PREFETCHES: 0 MISSED OPPORTUNITY: 0 LATE IN PQ: 0 UNCOVERED: 0
L1I COMMIT LATE MSHR PREFETCHES: 0
L1I MPKI TOTAL: 0.10453 MSHR LATE: 0 PQ LATE: 0 COMMIT LATE: 0 MISSED OPPORTUNITY: 0 UNCOVERED: 0
L1I PREFETCHES SAME FILL-ORIGIN LEVEL: 0 DIFFERENT FILL-ORIGIN LEVEL: 0
L1I AVERAGE MISS LATENCY: 46.0592 cycles
L1I AVERAGE MISS LATENCY LOAD: 46.0592 cycles
L1I AVERAGE MISS LATENCY PREFETCH: -nan cycles
L1I AVERAGE MSHR OCCUPANCY: 0.000577513
L1I MSHR FULL: 0
L1I RQ	ACCESS:   57050804	FORWARD:          0	MERGED:   16705398	TO_CACHE:   40345406

BTB SPEC fills:          0  NON-SPEC fills:          0
BTB Test counter :          0
BTB Leapfrog:          0
BTB MSHR merge:          0
BTB TOTAL     ACCESS:   31329121  HIT:   29031204  MISS:    2297917  HIT %:    92.6652  MISS %:    7.33476   MPKI: 11.4896
BTB BRANCH_DIRECT_JUMP	ACCESS:    1094608  HIT:    1094408  MISS:        200
BTB BRANCH_INDIRECT	ACCESS:       6209  HIT:       4182  MISS:       2027
BTB BRANCH_CONDITIONAL	ACCESS:   18688882  HIT:   18687006  MISS:       1876
BTB BRANCH_DIRECT_CALL	ACCESS:    5769438  HIT:    5768610  MISS:        828
BTB BRANCH_INDIRECT_CALL	ACCESS:        272  HIT:        218  MISS:         54
BTB BRANCH_RETURN	ACCESS:    5769712  HIT:    3476780  MISS:    2292932
BTB BRANCH_OTHER ACCESS:          0  HIT:          0  MISS:          0

L2C SPEC fills:          0  NON-SPEC fills:     289532
L2C Test counter :      76153
L2C Leapfrog:          0
L2C MSHR merge:       1071
L2C TOTAL     ACCESS:    1982285  HIT:    1152489  MISS:     829796  HIT %:    58.1394  MISS %:    41.8606   MPKI: 4.14898
L2C LOAD      TOTAL       ACCESS:     762949  HIT:     399751  MISS:     363198  HIT %:    52.3955  MISS %:    47.6045   MPKI: 1.81599
L2C LOAD      NON_SPEC    ACCESS:     538609  HIT:     246525  MISS:     292084  HIT %:    45.7707  MISS %:    54.2293   MPKI: 1.46042
L2C LOAD      SPEC        ACCESS:     224340  HIT:     153226  MISS:      71114  HIT %:    68.3008  MISS %:    31.6992   MPKI: 0.35557
L2C RFO       NON_SPEC    ACCESS:     366517  HIT:      39148  MISS:     327369  HIT %:    10.6811  MISS %:    89.3189   MPKI: 1.63685
L2C PREFETCH  NON_SPEC    ACCESS:     252746  HIT:     175098  MISS:      77648  HIT %:    69.2782  MISS %:    30.7218   MPKI: 0.38824
L2C WRITEBACK NON_SPEC    ACCESS:     450825  HIT:     450719  MISS:        106  HIT %:    99.9765  MISS %:  0.0235124   MPKI: 0.00053
L2C CLEAN_EVICTION NON_SPEC    ACCESS:     108291  HIT:      55810  MISS:      52481  HIT %:    51.5371  MISS %:    48.4629   MPKI: 0.262405
L2C COMMIT LOAD NON_SPEC    ACCESS:      11569  HIT:       4184  MISS:       7385  HIT %:    36.1656  MISS %:    63.8344   MPKI: 0.036925
L2C LOAD TRANSLATION NON_SPEC    ACCESS:      29363  HIT:      27754  MISS:       1609  HIT %:    94.5203  MISS %:    5.47969   MPKI: 0.008045
L2C TRANSLATION FROM L1D PREFETCHER NON_SPEC    ACCESS:         25  HIT:         25  MISS:          0  HIT %:        100  MISS %:          0   MPKI: 0
L2C PREFETCH  REQUESTED:          0  ISSUED:          0  USEFUL:       7274  USELESS:      71076
L2C USEFUL LOAD PREFETCHES:       7274 PREFETCH ISSUED TO LOWER LEVEL:      88988  ACCURACY: 8.17414
L2C TIMELY PREFETCHES:       7274 LATE PREFETCHES: 11340 DROPPED PREFETCHES: 0
L2C COMMIT LATE PREFETCHES: 0 MISSED OPPORTUNITY: 0 LATE IN PQ: 0 UNCOVERED: 0
L2C COMMIT LATE MSHR PREFETCHES: 0
L2C MPKI TOTAL: 1.81599 MSHR LATE: 0.0567 PQ LATE: 0 COMMIT LATE: 0 MISSED OPPORTUNITY: 0 UNCOVERED: 0
L2C PREFETCHES SAME FILL-ORIGIN LEVEL: 30716 DIFFERENT FILL-ORIGIN LEVEL: 0
L2C AVERAGE MISS LATENCY: 170.325 cycles
L2C AVERAGE MISS LATENCY LOAD: 175.562 cycles
L2C AVERAGE MISS LATENCY PREFETCH: 209.408 cycles
L2C AVERAGE MSHR OCCUPANCY: 0.978873
L2C MSHR FULL: 8.54392e-07
L2C RQ	ACCESS:    1170442	FORWARD:          0	MERGED:          0	TO_CACHE:    1170423
L2C WQ	ACCESS:     559116	FORWARD:         42	MERGED:          0	TO_CACHE:     559116
L2C PQ	ACCESS:     282473	FORWARD:          0	MERGED:        320	TO_CACHE:     282130

L2C Instructions Evicting Data 2531
L2C Translations Evicting Data 1569
L2C Data Evicting Data 695455
L2C Instructions Evicting Instructions 12
L2C Translations Evicting Instructions 13
L2C Data Evicting Instructions 2760
L2C Instructions Evicting Translations 4
L2C Translations Evicting Translations 1
L2C Data Evicting Translations 1660
L2C Dense regions hint from L2: 0
PSCL5 SPEC fills:          0  NON-SPEC fills:          0
PSCL5 Test counter :          0
PSCL5 Leapfrog:          0
PSCL5 MSHR merge:          0
PSCL5 TOTAL     ACCESS:          0  HIT:          0  MISS:          0  HIT %:       -nan  MISS %:       -nan   MPKI: 0
PSCL5 PREFETCH  REQUESTED:          0  ISSUED:          0  USEFUL:          0  USELESS:          0
PSCL5 USEFUL LOAD PREFETCHES:          0 PREFETCH ISSUED TO LOWER LEVEL:          0  ACCURACY: -nan
PSCL5 TIMELY PREFETCHES:          0 LATE PREFETCHES: 0 DROPPED PREFETCHES: 0
PSCL5 COMMIT LATE PREFETCHES: 0 MISSED OPPORTUNITY: 0 LATE IN PQ: 0 UNCOVERED: 0
PSCL5 COMMIT LATE MSHR PREFETCHES: 0
PSCL5 MPKI TOTAL: 0 MSHR LATE: 0 PQ LATE: 0 COMMIT LATE: 0 MISSED OPPORTUNITY: 0 UNCOVERED: 0
PSCL5 PREFETCHES SAME FILL-ORIGIN LEVEL: 0 DIFFERENT FILL-ORIGIN LEVEL: 0

PSCL4 SPEC fills:          0  NON-SPEC fills:          0
PSCL4 Test counter :          0
PSCL4 Leapfrog:          0
PSCL4 MSHR merge:          0
PSCL4 TOTAL     ACCESS:          0  HIT:          0  MISS:          0  HIT %:       -nan  MISS %:       -nan   MPKI: 0
PSCL4 PREFETCH  REQUESTED:          0  ISSUED:          0  USEFUL:          0  USELESS:          0
PSCL4 USEFUL LOAD PREFETCHES:          0 PREFETCH ISSUED TO LOWER LEVEL:          0  ACCURACY: -nan
PSCL4 TIMELY PREFETCHES:          0 LATE PREFETCHES: 0 DROPPED PREFETCHES: 0
PSCL4 COMMIT LATE PREFETCHES: 0 MISSED OPPORTUNITY: 0 LATE IN PQ: 0 UNCOVERED: 0
PSCL4 COMMIT LATE MSHR PREFETCHES: 0
PSCL4 MPKI TOTAL: 0 MSHR LATE: 0 PQ LATE: 0 COMMIT LATE: 0 MISSED OPPORTUNITY: 0 UNCOVERED: 0
PSCL4 PREFETCHES SAME FILL-ORIGIN LEVEL: 0 DIFFERENT FILL-ORIGIN LEVEL: 0

PSCL3 SPEC fills:          0  NON-SPEC fills:          0
PSCL3 Test counter :          0
PSCL3 Leapfrog:          0
PSCL3 MSHR merge:          0
PSCL3 TOTAL     ACCESS:          0  HIT:          0  MISS:          0  HIT %:       -nan  MISS %:       -nan   MPKI: 0
PSCL3 PREFETCH  REQUESTED:          0  ISSUED:          0  USEFUL:          0  USELESS:          0
PSCL3 USEFUL LOAD PREFETCHES:          0 PREFETCH ISSUED TO LOWER LEVEL:          0  ACCURACY: -nan
PSCL3 TIMELY PREFETCHES:          0 LATE PREFETCHES: 0 DROPPED PREFETCHES: 0
PSCL3 COMMIT LATE PREFETCHES: 0 MISSED OPPORTUNITY: 0 LATE IN PQ: 0 UNCOVERED: 0
PSCL3 COMMIT LATE MSHR PREFETCHES: 0
PSCL3 MPKI TOTAL: 0 MSHR LATE: 0 PQ LATE: 0 COMMIT LATE: 0 MISSED OPPORTUNITY: 0 UNCOVERED: 0
PSCL3 PREFETCHES SAME FILL-ORIGIN LEVEL: 0 DIFFERENT FILL-ORIGIN LEVEL: 0

PSCL2 SPEC fills:          0  NON-SPEC fills:          0
PSCL2 Test counter :          0
PSCL2 Leapfrog:          0
PSCL2 MSHR merge:          0
PSCL2 TOTAL     ACCESS:          0  HIT:          0  MISS:          0  HIT %:       -nan  MISS %:       -nan   MPKI: 0
PSCL2 PREFETCH  REQUESTED:          0  ISSUED:          0  USEFUL:          0  USELESS:          0
PSCL2 USEFUL LOAD PREFETCHES:          0 PREFETCH ISSUED TO LOWER LEVEL:          0  ACCURACY: -nan
PSCL2 TIMELY PREFETCHES:          0 LATE PREFETCHES: 0 DROPPED PREFETCHES: 0
PSCL2 COMMIT LATE PREFETCHES: 0 MISSED OPPORTUNITY: 0 LATE IN PQ: 0 UNCOVERED: 0
PSCL2 COMMIT LATE MSHR PREFETCHES: 0
PSCL2 MPKI TOTAL: 0 MSHR LATE: 0 PQ LATE: 0 COMMIT LATE: 0 MISSED OPPORTUNITY: 0 UNCOVERED: 0
PSCL2 PREFETCHES SAME FILL-ORIGIN LEVEL: 0 DIFFERENT FILL-ORIGIN LEVEL: 0

LLC SPEC fills:          0  NON-SPEC fills:     287161
LLC Test counter :      71108
LLC Leapfrog:          0
LLC MSHR merge:          0
LLC TOTAL     ACCESS:    1218764  HIT:     405867  MISS:     812897  HIT %:    33.3015  MISS %:    66.6985   MPKI: 4.06449
LLC LOAD      TOTAL       ACCESS:     362127  HIT:       6642  MISS:     355485  HIT %:    1.83416  MISS %:    98.1658   MPKI: 1.77743
LLC LOAD      NON_SPEC    ACCESS:     292061  HIT:       2364  MISS:     289697  HIT %:    0.80942  MISS %:    99.1906   MPKI: 1.44849
LLC LOAD      SPEC        ACCESS:      70066  HIT:       4278  MISS:      65788  HIT %:    6.10567  MISS %:    93.8943   MPKI: 0.32894
LLC RFO       NON_SPEC    ACCESS:     317808  HIT:       2301  MISS:     315507  HIT %:   0.724022  MISS %:     99.276   MPKI: 1.57753
LLC PREFETCH  NON_SPEC    ACCESS:      88988  HIT:       4596  MISS:      84392  HIT %:    5.16474  MISS %:    94.8353   MPKI: 0.42196
LLC WRITEBACK NON_SPEC    ACCESS:     365402  HIT:     365323  MISS:         79  HIT %:    99.9784  MISS %:    0.02162   MPKI: 0.000395
LLC CLEAN_EVICTION NON_SPEC    ACCESS:      76153  HIT:      26684  MISS:      49469  HIT %:      35.04  MISS %:      64.96   MPKI: 0.247345
LLC COMMIT LOAD NON_SPEC    ACCESS:       6677  HIT:        122  MISS:       6555  HIT %:    1.82717  MISS %:    98.1728   MPKI: 0.032775
LLC LOAD TRANSLATION NON_SPEC    ACCESS:       1609  HIT:        199  MISS:       1410  HIT %:    12.3679  MISS %:    87.6321   MPKI: 0.00705
LLC PREFETCH  REQUESTED:          0  ISSUED:          0  USEFUL:       3088  USELESS:      80775
LLC USEFUL LOAD PREFETCHES:       3088 PREFETCH ISSUED TO LOWER LEVEL:      84392  ACCURACY: 3.65911
LLC TIMELY PREFETCHES:       3088 LATE PREFETCHES: 0 DROPPED PREFETCHES: 0
LLC COMMIT LATE PREFETCHES: 0 MISSED OPPORTUNITY: 0 LATE IN PQ: 0 UNCOVERED: 0
LLC COMMIT LATE MSHR PREFETCHES: 0
LLC MPKI TOTAL: 1.77743 MSHR LATE: 0 PQ LATE: 0 COMMIT LATE: 0 MISSED OPPORTUNITY: 0 UNCOVERED: 0
LLC PREFETCHES SAME FILL-ORIGIN LEVEL: 0 DIFFERENT FILL-ORIGIN LEVEL: 0
LLC AVERAGE MISS LATENCY: 146.761 cycles
LLC AVERAGE MISS LATENCY LOAD: 149.856 cycles
LLC AVERAGE MISS LATENCY PREFETCH: 195.022 cycles
LLC AVERAGE MSHR OCCUPANCY: 1.14901
LLC MSHR FULL: 0
LLC RQ	ACCESS:     688221	FORWARD:          0	MERGED:          0	TO_CACHE:     688221
LLC WQ	ACCESS:     441555	FORWARD:          0	MERGED:          0	TO_CACHE:     441555
LLC PQ	ACCESS:      88988	FORWARD:          0	MERGED:          0	TO_CACHE:      88988

LLC Dense regions hint to LLC: 0

RAW hits: 1493330
Loads Generated: 55430316
Loads sent to L1D: 53936985
Stores Generated: 25679661
Stores sent to L1D: 25679663
Major fault: 0 Minor fault: 2275
Allocated PAGES: 2275
Total Load insts: 65739715
Total Non-spec loads: 22241661
Percentage of speculative loads: 66.1671

LeapFrogging counter: 95769
Commit hits: 23148890 miss: 10664927
Commit hit %: 68.4599 miss %: 31.5401
Commits not translated: 0
Loads retired: 761279
Stores retired: 25679663
Cache fills: 761279
L1D response latency: 98.4386 cycles
Load retirement latency: 135.422 cycles
OOO test counter: 0
Discarded buffer inserts: 23148890 hits: 32904 hit %: 0.142141
Speculative prefetch buffer size: 0
CPU 0 L1D PC-based stride prefetcher final stats
Degree: 3

DRAM Statistics
 CHANNEL 0
 RQ ROW_BUFFER_HIT:     171337  ROW_BUFFER_MISS:     592010
 DBUS_CONGESTED:        151
 WQ ROW_BUFFER_HIT:     270087  ROW_BUFFER_MISS:     150546  FULL:        115

 AVG_CONGESTED_CYCLE: 4
 All warmup complete: 2
Channel 0 Bank busy for read cycles: 0
Channel 0 Bank busy for write cycles: 0
Channel 0
Rank 0
0banks busy for read cycles: 496033366
0banks busy for write cycles: 43595
1banks busy for read cycles: 25513966
1banks busy for write cycles: 10124288
2banks busy for read cycles: 26010882
2banks busy for write cycles: 10715764
3banks busy for read cycles: 747965
3banks busy for write cycles: 5486613
4banks busy for read cycles: 523681
4banks busy for write cycles: 4364602
5banks busy for read cycles: 489715
5banks busy for write cycles: 1722880
6banks busy for read cycles: 434863
6banks busy for write cycles: 771267
7banks busy for read cycles: 501920
7banks busy for write cycles: 612164
8banks busy for read cycles: 867925
8banks busy for write cycles: 1093425

CPU 0 Branch Prediction Accuracy: 93.3169% MPKI: 11.1129 Average ROB Occupancy at Mispredict: 21.8739
Branch types
NOT_BRANCH: 166743420 83.3717%
BRANCH_DIRECT_JUMP: 1094608 0.547304%
BRANCH_INDIRECT: 6209 0.0031045%
BRANCH_CONDITIONAL: 20616346 10.3082%
BRANCH_DIRECT_CALL: 5769438 2.88472%
BRANCH_INDIRECT_CALL: 272 0.000136%
BRANCH_RETURN: 5769712 2.88486%
BRANCH_OTHER: 0 0%

DRAM PAGES: 1048576
Allocated PAGES: 2275
