
*** ChampSim Multicore Out-of-Order Simulator ***

Warmup Instructions: 50000000
Simulation Instructions: 200000000
Number of CPUs: 1
LLC sets: 2048
LLC ways: 16
L0D sets: 16
L0D ways: 2
ROB size: 352
LQ size: 128
SQ size: 72
Secure Berti: OFF
Berti: OFF
Berti Fill: OFF
On commit prefetching: ON
Hit-based filter: ON
Time-guarding: ON
Free-slotting: ON
Leap-frogging: ON
Train prefetcher on L0D bypass: OFF
No translation penalty for prefetchers: OFF
Prefetch to L0D only: OFF
Prefetch to L1D only: OFF
Clean evictions: ON
Commit loads: ON
Commit write: ON
Fill commit loads to L2C, LLC: ON
DRAM IO FREQUENCY: 6400
ROB SIZE: 352
Off-chip DRAM Size: 4096 MB Channels: 1 Width: 64-bit Data Rate: 6400 MT/s
CPU 0 runs /home/sumon/secure_berti/GhostMinion/../../traces/spec/649.fotonik3d_s-10881B.champsimtrace.xz
.xz
BTB has LRU replacement policy
ITLB has LRU replacement policy
DTLB has LRU replacement policy
STLB has LRU replacement policy
L1I has LRU replacement policy
L0D has LRU replacement policy
CPU 0 L1D IP-based stride prefetcher
L1D has LRU replacement policy
L2C has LRU replacement policy
LLC has LRU replacement policy
Heartbeat CPU 0 instructions: 10000000 cycles: 5574094 heartbeat IPC: 1.79401 cumulative IPC: 1.79401 (Simulation time: 0 hr 0 min 52 sec) 
Heartbeat CPU 0 instructions: 20000000 cycles: 11132615 heartbeat IPC: 1.79904 cumulative IPC: 1.79652 (Simulation time: 0 hr 1 min 44 sec) 
Heartbeat CPU 0 instructions: 30000000 cycles: 16690068 heartbeat IPC: 1.79939 cumulative IPC: 1.79748 (Simulation time: 0 hr 2 min 38 sec) 
Heartbeat CPU 0 instructions: 40000002 cycles: 22249563 heartbeat IPC: 1.79872 cumulative IPC: 1.79779 (Simulation time: 0 hr 3 min 30 sec) 
Heartbeat CPU 0 instructions: 50000002 cycles: 27814435 heartbeat IPC: 1.79699 cumulative IPC: 1.79763 (Simulation time: 0 hr 4 min 22 sec) 

Warmup complete CPU 0 instructions: 50000002 cycles: 27814435 (Simulation time: 0 hr 4 min 22 sec) 

Heartbeat CPU 0 instructions: 60000000 cycles: 48632296 heartbeat IPC: 0.480357 cumulative IPC: 0.480357 (Simulation time: 0 hr 5 min 29 sec) 
Heartbeat CPU 0 instructions: 70000002 cycles: 69467143 heartbeat IPC: 0.479965 cumulative IPC: 0.480161 (Simulation time: 0 hr 6 min 37 sec) 
Heartbeat CPU 0 instructions: 80000003 cycles: 90314283 heartbeat IPC: 0.479682 cumulative IPC: 0.480001 (Simulation time: 0 hr 7 min 45 sec) 
Heartbeat CPU 0 instructions: 90000003 cycles: 111168061 heartbeat IPC: 0.479529 cumulative IPC: 0.479883 (Simulation time: 0 hr 8 min 53 sec) 
Heartbeat CPU 0 instructions: 100000003 cycles: 131965060 heartbeat IPC: 0.480839 cumulative IPC: 0.480074 (Simulation time: 0 hr 10 min 1 sec) 
Heartbeat CPU 0 instructions: 110000000 cycles: 152779415 heartbeat IPC: 0.480438 cumulative IPC: 0.480134 (Simulation time: 0 hr 11 min 9 sec) 
Heartbeat CPU 0 instructions: 120000003 cycles: 173721131 heartbeat IPC: 0.477516 cumulative IPC: 0.479759 (Simulation time: 0 hr 12 min 17 sec) 
Heartbeat CPU 0 instructions: 130000000 cycles: 194522274 heartbeat IPC: 0.480743 cumulative IPC: 0.479881 (Simulation time: 0 hr 13 min 27 sec) 
Heartbeat CPU 0 instructions: 140000002 cycles: 215365371 heartbeat IPC: 0.479775 cumulative IPC: 0.47987 (Simulation time: 0 hr 14 min 36 sec) 
Heartbeat CPU 0 instructions: 150000003 cycles: 236212521 heartbeat IPC: 0.479682 cumulative IPC: 0.479851 (Simulation time: 0 hr 15 min 42 sec) 
Heartbeat CPU 0 instructions: 160000001 cycles: 257012899 heartbeat IPC: 0.48076 cumulative IPC: 0.479933 (Simulation time: 0 hr 16 min 47 sec) 
Heartbeat CPU 0 instructions: 170000003 cycles: 277886400 heartbeat IPC: 0.479076 cumulative IPC: 0.479862 (Simulation time: 0 hr 17 min 52 sec) 
Heartbeat CPU 0 instructions: 180000000 cycles: 298687508 heartbeat IPC: 0.480743 cumulative IPC: 0.47993 (Simulation time: 0 hr 18 min 56 sec) 
Heartbeat CPU 0 instructions: 190000002 cycles: 319541706 heartbeat IPC: 0.47952 cumulative IPC: 0.4799 (Simulation time: 0 hr 19 min 59 sec) 
Heartbeat CPU 0 instructions: 200000002 cycles: 340446471 heartbeat IPC: 0.47836 cumulative IPC: 0.479797 (Simulation time: 0 hr 21 min 5 sec) 
Heartbeat CPU 0 instructions: 210000003 cycles: 361288816 heartbeat IPC: 0.479793 cumulative IPC: 0.479797 (Simulation time: 0 hr 22 min 6 sec) 
Heartbeat CPU 0 instructions: 220000000 cycles: 382164862 heartbeat IPC: 0.479018 cumulative IPC: 0.479751 (Simulation time: 0 hr 23 min 6 sec) 
Heartbeat CPU 0 instructions: 230000001 cycles: 402958405 heartbeat IPC: 0.480919 cumulative IPC: 0.479816 (Simulation time: 0 hr 24 min 6 sec) 
Heartbeat CPU 0 instructions: 240000002 cycles: 423806117 heartbeat IPC: 0.479669 cumulative IPC: 0.479808 (Simulation time: 0 hr 25 min 5 sec) 
Heartbeat CPU 0 instructions: 250000000 cycles: 444646370 heartbeat IPC: 0.479841 cumulative IPC: 0.47981 (Simulation time: 0 hr 26 min 2 sec) 
Finished CPU 0 instructions: 200000002 cycles: 416831936 cumulative IPC: 0.47981 (Simulation time: 0 hr 26 min 2 sec) 
 Instruction ID: 250000353

ChampSim completed all CPUs

Region of Interest Statistics

CPU 0 cumulative IPC: 0.47981 instructions: 200000002 cycles: 416831936
ITLB SPEC fills:          0  NON-SPEC fills:          0
ITLB Test counter :          0
ITLB Leapfrog:          0
ITLB MSHR merge:          0
ITLB TOTAL     ACCESS:   27864876  HIT:   27864876  MISS:          0  HIT %:        100  MISS %:          0   MPKI: 0
ITLB LOAD TRANSLATION NON_SPEC    ACCESS:   27864876  HIT:   27864876  MISS:          0  HIT %:        100  MISS %:          0   MPKI: 0
ITLB PREFETCH  REQUESTED:          0  ISSUED:          0  USEFUL:          0  USELESS:          0
ITLB USEFUL LOAD PREFETCHES:          0 PREFETCH ISSUED TO LOWER LEVEL:          0  ACCURACY: -nan
ITLB TIMELY PREFETCHES:          0 LATE PREFETCHES: 0 DROPPED PREFETCHES: 0
ITLB COMMIT LATE PREFETCHES: 0 MISSED OPPORTUNITY: 0 LATE IN PQ: 0 UNCOVERED: 0
ITLB COMMIT LATE MSHR PREFETCHES: 0
ITLB MPKI TOTAL: 0 MSHR LATE: 0 PQ LATE: 0 COMMIT LATE: 0 MISSED OPPORTUNITY: 0 UNCOVERED: 0
ITLB PREFETCHES SAME FILL-ORIGIN LEVEL: 0 DIFFERENT FILL-ORIGIN LEVEL: 0
ITLB AVERAGE MISS LATENCY: -nan cycles
ITLB AVERAGE MISS LATENCY LOAD: -nan cycles
ITLB AVERAGE MISS LATENCY PREFETCH: -nan cycles
ITLB AVERAGE MSHR OCCUPANCY: 0
ITLB MSHR FULL: 0
ITLB RQ	ACCESS:   29597340	FORWARD:          0	MERGED:    1732464	TO_CACHE:   27864876

DTLB SPEC fills:          0  NON-SPEC fills:          0
DTLB Test counter :          0
DTLB Leapfrog:          0
DTLB MSHR merge:          0
DTLB TOTAL     ACCESS:   93723165  HIT:   92697399  MISS:    1025766  HIT %:    98.9055  MISS %:    1.09446   MPKI: 5.12883
DTLB LOAD TRANSLATION NON_SPEC    ACCESS:   93723165  HIT:   92697399  MISS:    1025766  HIT %:    98.9055  MISS %:    1.09446   MPKI: 5.12883
DTLB PREFETCH  REQUESTED:          0  ISSUED:          0  USEFUL:          0  USELESS:          0
DTLB USEFUL LOAD PREFETCHES:          0 PREFETCH ISSUED TO LOWER LEVEL:          0  ACCURACY: -nan
DTLB TIMELY PREFETCHES:          0 LATE PREFETCHES: 0 DROPPED PREFETCHES: 0
DTLB COMMIT LATE PREFETCHES: 0 MISSED OPPORTUNITY: 0 LATE IN PQ: 0 UNCOVERED: 0
DTLB COMMIT LATE MSHR PREFETCHES: 0
DTLB MPKI TOTAL: 0 MSHR LATE: 0 PQ LATE: 0 COMMIT LATE: 0 MISSED OPPORTUNITY: 0 UNCOVERED: 0
DTLB PREFETCHES SAME FILL-ORIGIN LEVEL: 0 DIFFERENT FILL-ORIGIN LEVEL: 0
DTLB AVERAGE MISS LATENCY: 278.58 cycles
DTLB AVERAGE MISS LATENCY LOAD: -nan cycles
DTLB AVERAGE MISS LATENCY PREFETCH: -nan cycles
DTLB AVERAGE MSHR OCCUPANCY: 0.227643
DTLB MSHR FULL: 0.000597455
DTLB RQ	ACCESS:  109325285	FORWARD:          0	MERGED:   15534681	TO_CACHE:   93790604

STLB SPEC fills:          0  NON-SPEC fills:          0
STLB Test counter :          0
STLB Leapfrog:          0
STLB MSHR merge:          0
STLB TOTAL     ACCESS:    2989076  HIT:    2310096  MISS:     678980  HIT %:    77.2846  MISS %:    22.7154   MPKI: 3.3949
STLB LOAD TRANSLATION NON_SPEC    ACCESS:    1025766  HIT:     346827  MISS:     678939  HIT %:    33.8115  MISS %:    66.1885   MPKI: 3.39469
STLB TRANSLATION FROM L1D PREFETCHER NON_SPEC    ACCESS:    1963310  HIT:    1963269  MISS:         41  HIT %:    99.9979  MISS %: 0.00208831   MPKI: 0.000205
STLB PREFETCH  REQUESTED:          0  ISSUED:          0  USEFUL:         19  USELESS:         22
STLB USEFUL LOAD PREFETCHES:         19 PREFETCH ISSUED TO LOWER LEVEL:          0  ACCURACY: inf
STLB TIMELY PREFETCHES:         19 LATE PREFETCHES: 0 DROPPED PREFETCHES: 0
STLB COMMIT LATE PREFETCHES: 0 MISSED OPPORTUNITY: 0 LATE IN PQ: 0 UNCOVERED: 0
STLB COMMIT LATE MSHR PREFETCHES: 0
STLB MPKI TOTAL: 0 MSHR LATE: 0 PQ LATE: 0 COMMIT LATE: 0 MISSED OPPORTUNITY: 0 UNCOVERED: 0
STLB PREFETCHES SAME FILL-ORIGIN LEVEL: 0 DIFFERENT FILL-ORIGIN LEVEL: 0
STLB AVERAGE MISS LATENCY: 406.569 cycles
STLB AVERAGE MISS LATENCY LOAD: -nan cycles
STLB AVERAGE MISS LATENCY PREFETCH: -nan cycles
STLB AVERAGE MSHR OCCUPANCY: 0.428114
STLB MSHR FULL: 0
STLB RQ	ACCESS:    6837252	FORWARD:          0	MERGED:    3848176	TO_CACHE:    2989076

STLB Hit, L1D data hit: 0
STLB Hit, L2C data hit: 0
STLB Hit, LLC data hit: 0
STLB Hit, LLC data miss: 0
STLB STLB hints to L2: 0
L0D SPEC fills:   52411476  NON-SPEC fills:          0
L0D TimeGuard Request with older TS:    8869641 Restricted eviction:    6204398 read:    2090348
L0D Test counter :          0
L0D Leapfrog:          0
L0D MSHR merge:    5222997
L0D TOTAL     ACCESS:   91279669  HIT:   28786725  MISS:   62492944  HIT %:    31.5368  MISS %:    68.4632   MPKI: 312.465
L0D LOAD      TOTAL       ACCESS:   91279669  HIT:   28786725  MISS:   62492944  HIT %:    31.5368  MISS %:    68.4632   MPKI: 312.465
L0D LOAD      NON_SPEC    ACCESS:    5484271  HIT:    1607094  MISS:    3877177  HIT %:    29.3037  MISS %:    70.6963   MPKI: 19.3859
L0D LOAD      SPEC        ACCESS:   85795398  HIT:   27179631  MISS:   58615767  HIT %:    31.6796  MISS %:    68.3204   MPKI: 293.079
L0D PREFETCH  REQUESTED:          0  ISSUED:          0  USEFUL:          0  USELESS:          0
L0D USEFUL LOAD PREFETCHES:          0 PREFETCH ISSUED TO LOWER LEVEL:          0  ACCURACY: -nan
L0D TIMELY PREFETCHES:          0 LATE PREFETCHES: 0 DROPPED PREFETCHES: 0
L0D COMMIT LATE PREFETCHES: 0 MISSED OPPORTUNITY: 0 LATE IN PQ: 0 UNCOVERED: 0
L0D COMMIT LATE MSHR PREFETCHES: 0
L0D MPKI TOTAL: 338.58 MSHR LATE: 0 PQ LATE: 0 COMMIT LATE: 0 MISSED OPPORTUNITY: 0 UNCOVERED: 0
L0D PREFETCHES SAME FILL-ORIGIN LEVEL: 0 DIFFERENT FILL-ORIGIN LEVEL: 0
L0D AVERAGE MISS LATENCY: 14.0918 cycles
L0D AVERAGE MISS LATENCY LOAD: 14.0918 cycles
L0D AVERAGE MISS LATENCY PREFETCH: -nan cycles
L0D AVERAGE MSHR OCCUPANCY: 3.03444
L0D MSHR FULL: 0.0255758
L0D RQ	ACCESS:  127605819	FORWARD:          0	MERGED:   31103151	TO_CACHE:   96502668
L0D WQ	ACCESS:   12822617	FORWARD:          0	MERGED:          0	TO_CACHE:   12822617

L1D SPEC fills:          0  NON-SPEC fills:     117795
L1D Test counter :    2836358
L1D Leapfrog:          0
L1D MSHR merge:     134629
L1D TOTAL     ACCESS:   84946257  HIT:   76714304  MISS:    8231953  HIT %:    90.3092  MISS %:    9.69078   MPKI: 41.1598
L1D LOAD      TOTAL       ACCESS:   62358316  HIT:   59176178  MISS:    3182138  HIT %:     94.897  MISS %:    5.10299   MPKI: 15.9107
L1D LOAD      NON_SPEC    ACCESS:    3873726  HIT:    3755931  MISS:     117795  HIT %:    96.9591  MISS %:    3.04087   MPKI: 0.588975
L1D LOAD      SPEC        ACCESS:   58484590  HIT:   55420247  MISS:    3064343  HIT %:    94.7604  MISS %:    5.23957   MPKI: 15.3217
L1D RFO       NON_SPEC    ACCESS:   12602078  HIT:   12601784  MISS:        294  HIT %:    99.9977  MISS %: 0.00233295   MPKI: 0.00147
L1D PREFETCH  NON_SPEC    ACCESS:    5407608  HIT:    3338340  MISS:    2069268  HIT %:    61.7341  MISS %:    38.2659   MPKI: 10.3463
L1D COMMIT LOAD NON_SPEC    ACCESS:    1519310  HIT:    1330113  MISS:     189197  HIT %:    87.5472  MISS %:    12.4528   MPKI: 0.945985
L1D COMMIT WRITE NON_SPEC    ACCESS:    3058945  HIT:     267889  MISS:    2791056  HIT %:    8.75756  MISS %:    91.2424   MPKI: 13.9553
L1D PREFETCH  REQUESTED:    8048124  ISSUED:    8048124  USEFUL:     845937  USELESS:    1223317
L1D USEFUL LOAD PREFETCHES:     845937 PREFETCH ISSUED TO LOWER LEVEL:    2105298  ACCURACY: 40.1813
L1D TIMELY PREFETCHES:     845937 LATE PREFETCHES: 0 DROPPED PREFETCHES: 0
L1D COMMIT LATE PREFETCHES: 0 MISSED OPPORTUNITY: 0 LATE IN PQ: 0 UNCOVERED: 0
L1D COMMIT LATE MSHR PREFETCHES: 0
L1D MPKI TOTAL: 16.5838 MSHR LATE: 0 PQ LATE: 0 COMMIT LATE: 0 MISSED OPPORTUNITY: 0 UNCOVERED: 0
L1D PREFETCHES SAME FILL-ORIGIN LEVEL: 2069270 DIFFERENT FILL-ORIGIN LEVEL: 36028
L1D AVERAGE MISS LATENCY: 123.062 cycles
L1D AVERAGE MISS LATENCY LOAD: 162.059 cycles
L1D AVERAGE MISS LATENCY PREFETCH: 228.456 cycles
L1D AVERAGE MSHR OCCUPANCY: 2.36085
L1D MSHR FULL: 0.000240795
L1D RQ	ACCESS:   64116835	FORWARD:          0	MERGED:      52672	TO_CACHE:   64064114
L1D WQ	ACCESS:   15881562	FORWARD:         49	MERGED:     145227	TO_CACHE:   15736335
L1D PQ	ACCESS:    8048124	FORWARD:          0	MERGED:    2236638	TO_CACHE:    5811486

L1D UNIQUE REGIONS ACCESSED: 0
L1D REGIONS CONFLICTS: 0
L1D Cross Page Prefetch Requests: 0
L1D Same Page Prefetch Requests: 10060094
L1D ROI Sum of L1D PQ occupancy: 84658887
L1D PREFETCHES PUSHED FROM L2C: 0
L1I SPEC fills:          0  NON-SPEC fills:          0
L1I Test counter :          0
L1I Leapfrog:          0
L1I MSHR merge:          0
L1I TOTAL     ACCESS:   29597338  HIT:   29597338  MISS:          0  HIT %:        100  MISS %:          0   MPKI: 0
L1I LOAD      TOTAL       ACCESS:   29597338  HIT:   29597338  MISS:          0  HIT %:        100  MISS %:          0   MPKI: 0
L1I LOAD      NON_SPEC    ACCESS:   29597338  HIT:   29597338  MISS:          0  HIT %:        100  MISS %:          0   MPKI: 0
L1I PREFETCH  REQUESTED:          0  ISSUED:          0  USEFUL:          0  USELESS:          0
L1I USEFUL LOAD PREFETCHES:          0 PREFETCH ISSUED TO LOWER LEVEL:          0  ACCURACY: -nan
L1I TIMELY PREFETCHES:          0 LATE PREFETCHES: 0 DROPPED PREFETCHES: 0
L1I COMMIT LATE PREFETCHES: 0 MISSED OPPORTUNITY: 0 LATE IN PQ: 0 UNCOVERED: 0
L1I COMMIT LATE MSHR PREFETCHES: 0
L1I MPKI TOTAL: 0 MSHR LATE: 0 PQ LATE: 0 COMMIT LATE: 0 MISSED OPPORTUNITY: 0 UNCOVERED: 0
L1I PREFETCHES SAME FILL-ORIGIN LEVEL: 0 DIFFERENT FILL-ORIGIN LEVEL: 0
L1I AVERAGE MISS LATENCY: -nan cycles
L1I AVERAGE MISS LATENCY LOAD: -nan cycles
L1I AVERAGE MISS LATENCY PREFETCH: -nan cycles
L1I AVERAGE MSHR OCCUPANCY: 0
L1I MSHR FULL: 0
L1I RQ	ACCESS:   63591786	FORWARD:          0	MERGED:   33994446	TO_CACHE:   29597340

BTB SPEC fills:          0  NON-SPEC fills:          0
BTB Test counter :          0
BTB Leapfrog:          0
BTB MSHR merge:          0
BTB TOTAL     ACCESS:    2243766  HIT:    2243761  MISS:          5  HIT %:    99.9998  MISS %: 0.00022284   MPKI: 2.5e-05
BTB BRANCH_DIRECT_JUMP	ACCESS:     160245  HIT:     160244  MISS:          1
BTB BRANCH_INDIRECT	ACCESS:          0  HIT:          0  MISS:          0
BTB BRANCH_CONDITIONAL	ACCESS:    2083521  HIT:    2083517  MISS:          4
BTB BRANCH_DIRECT_CALL	ACCESS:          0  HIT:          0  MISS:          0
BTB BRANCH_INDIRECT_CALL	ACCESS:          0  HIT:          0  MISS:          0
BTB BRANCH_RETURN	ACCESS:          0  HIT:          0  MISS:          0
BTB BRANCH_OTHER ACCESS:          0  HIT:          0  MISS:          0

L2C SPEC fills:          0  NON-SPEC fills:     117665
L2C Test counter :    2831690
L2C Leapfrog:          0
L2C MSHR merge:          0
L2C TOTAL     ACCESS:   12481532  HIT:    4353247  MISS:    8128285  HIT %:    34.8775  MISS %:    65.1225   MPKI: 40.6414
L2C LOAD      TOTAL       ACCESS:    3181806  HIT:      99302  MISS:    3082504  HIT %:    3.12093  MISS %:    96.8791   MPKI: 15.4125
L2C LOAD      NON_SPEC    ACCESS:     117791  HIT:        126  MISS:     117665  HIT %:   0.106969  MISS %:     99.893   MPKI: 0.588325
L2C LOAD      SPEC        ACCESS:    3064015  HIT:      99176  MISS:    2964839  HIT %:     3.2368  MISS %:    96.7632   MPKI: 14.8242
L2C RFO       NON_SPEC    ACCESS:        294  HIT:          7  MISS:        287  HIT %:    2.38095  MISS %:     97.619   MPKI: 0.001435
L2C PREFETCH  NON_SPEC    ACCESS:    2101181  HIT:      29589  MISS:    2071592  HIT %:    1.40821  MISS %:    98.5918   MPKI: 10.358
L2C WRITEBACK NON_SPEC    ACCESS:     778794  HIT:     778780  MISS:         14  HIT %:    99.9982  MISS %: 0.00179765   MPKI: 7e-05
L2C CLEAN_EVICTION NON_SPEC    ACCESS:    2836358  HIT:     122567  MISS:    2713791  HIT %:    4.32128  MISS %:    95.6787   MPKI: 13.569
L2C COMMIT LOAD NON_SPEC    ACCESS:     189197  HIT:      15531  MISS:     173666  HIT %:     8.2089  MISS %:    91.7911   MPKI: 0.86833
L2C LOAD TRANSLATION NON_SPEC    ACCESS:    3393697  HIT:    3307324  MISS:      86373  HIT %:    97.4549  MISS %:     2.5451   MPKI: 0.431865
L2C TRANSLATION FROM L1D PREFETCHER NON_SPEC    ACCESS:        205  HIT:        147  MISS:         58  HIT %:    71.7073  MISS %:    28.2927   MPKI: 0.00029
L2C PREFETCH  REQUESTED:          0  ISSUED:          0  USEFUL:       5682  USELESS:    2066009
L2C USEFUL LOAD PREFETCHES:       5682 PREFETCH ISSUED TO LOWER LEVEL:    2071594  ACCURACY: 0.274282
L2C TIMELY PREFETCHES:       5682 LATE PREFETCHES: 0 DROPPED PREFETCHES: 0
L2C COMMIT LATE PREFETCHES: 0 MISSED OPPORTUNITY: 0 LATE IN PQ: 0 UNCOVERED: 0
L2C COMMIT LATE MSHR PREFETCHES: 0
L2C MPKI TOTAL: 15.4125 MSHR LATE: 0 PQ LATE: 0 COMMIT LATE: 0 MISSED OPPORTUNITY: 0 UNCOVERED: 0
L2C PREFETCHES SAME FILL-ORIGIN LEVEL: 34498 DIFFERENT FILL-ORIGIN LEVEL: 0
L2C AVERAGE MISS LATENCY: 118.705 cycles
L2C AVERAGE MISS LATENCY LOAD: 154.912 cycles
L2C AVERAGE MISS LATENCY PREFETCH: 215.509 cycles
L2C AVERAGE MSHR OCCUPANCY: 2.88762
L2C MSHR FULL: 0
L2C RQ	ACCESS:    6765531	FORWARD:          0	MERGED:          0	TO_CACHE:    6765199
L2C WQ	ACCESS:    3615153	FORWARD:        332	MERGED:          1	TO_CACHE:    3615152
L2C PQ	ACCESS:    2105298	FORWARD:          0	MERGED:          0	TO_CACHE:    2105298

L2C Instructions Evicting Data 0
L2C Translations Evicting Data 85204
L2C Data Evicting Data 2323760
L2C Instructions Evicting Instructions 0
L2C Translations Evicting Instructions 0
L2C Data Evicting Instructions 0
L2C Instructions Evicting Translations 0
L2C Translations Evicting Translations 1227
L2C Data Evicting Translations 39450
L2C Dense regions hint from L2: 0
PSCL5 SPEC fills:          0  NON-SPEC fills:          0
PSCL5 Test counter :          0
PSCL5 Leapfrog:          0
PSCL5 MSHR merge:          0
PSCL5 TOTAL     ACCESS:          0  HIT:          0  MISS:          0  HIT %:       -nan  MISS %:       -nan   MPKI: 0
PSCL5 PREFETCH  REQUESTED:          0  ISSUED:          0  USEFUL:          0  USELESS:          0
PSCL5 USEFUL LOAD PREFETCHES:          0 PREFETCH ISSUED TO LOWER LEVEL:          0  ACCURACY: -nan
PSCL5 TIMELY PREFETCHES:          0 LATE PREFETCHES: 0 DROPPED PREFETCHES: 0
PSCL5 COMMIT LATE PREFETCHES: 0 MISSED OPPORTUNITY: 0 LATE IN PQ: 0 UNCOVERED: 0
PSCL5 COMMIT LATE MSHR PREFETCHES: 0
PSCL5 MPKI TOTAL: 0 MSHR LATE: 0 PQ LATE: 0 COMMIT LATE: 0 MISSED OPPORTUNITY: 0 UNCOVERED: 0
PSCL5 PREFETCHES SAME FILL-ORIGIN LEVEL: 0 DIFFERENT FILL-ORIGIN LEVEL: 0

PSCL4 SPEC fills:          0  NON-SPEC fills:          0
PSCL4 Test counter :          0
PSCL4 Leapfrog:          0
PSCL4 MSHR merge:          0
PSCL4 TOTAL     ACCESS:          0  HIT:          0  MISS:          0  HIT %:       -nan  MISS %:       -nan   MPKI: 0
PSCL4 PREFETCH  REQUESTED:          0  ISSUED:          0  USEFUL:          0  USELESS:          0
PSCL4 USEFUL LOAD PREFETCHES:          0 PREFETCH ISSUED TO LOWER LEVEL:          0  ACCURACY: -nan
PSCL4 TIMELY PREFETCHES:          0 LATE PREFETCHES: 0 DROPPED PREFETCHES: 0
PSCL4 COMMIT LATE PREFETCHES: 0 MISSED OPPORTUNITY: 0 LATE IN PQ: 0 UNCOVERED: 0
PSCL4 COMMIT LATE MSHR PREFETCHES: 0
PSCL4 MPKI TOTAL: 0 MSHR LATE: 0 PQ LATE: 0 COMMIT LATE: 0 MISSED OPPORTUNITY: 0 UNCOVERED: 0
PSCL4 PREFETCHES SAME FILL-ORIGIN LEVEL: 0 DIFFERENT FILL-ORIGIN LEVEL: 0

PSCL3 SPEC fills:          0  NON-SPEC fills:          0
PSCL3 Test counter :          0
PSCL3 Leapfrog:          0
PSCL3 MSHR merge:          0
PSCL3 TOTAL     ACCESS:          0  HIT:          0  MISS:          0  HIT %:       -nan  MISS %:       -nan   MPKI: 0
PSCL3 PREFETCH  REQUESTED:          0  ISSUED:          0  USEFUL:          0  USELESS:          0
PSCL3 USEFUL LOAD PREFETCHES:          0 PREFETCH ISSUED TO LOWER LEVEL:          0  ACCURACY: -nan
PSCL3 TIMELY PREFETCHES:          0 LATE PREFETCHES: 0 DROPPED PREFETCHES: 0
PSCL3 COMMIT LATE PREFETCHES: 0 MISSED OPPORTUNITY: 0 LATE IN PQ: 0 UNCOVERED: 0
PSCL3 COMMIT LATE MSHR PREFETCHES: 0
PSCL3 MPKI TOTAL: 0 MSHR LATE: 0 PQ LATE: 0 COMMIT LATE: 0 MISSED OPPORTUNITY: 0 UNCOVERED: 0
PSCL3 PREFETCHES SAME FILL-ORIGIN LEVEL: 0 DIFFERENT FILL-ORIGIN LEVEL: 0

PSCL2 SPEC fills:          0  NON-SPEC fills:          0
PSCL2 Test counter :          0
PSCL2 Leapfrog:          0
PSCL2 MSHR merge:          0
PSCL2 TOTAL     ACCESS:          0  HIT:          0  MISS:          0  HIT %:       -nan  MISS %:       -nan   MPKI: 0
PSCL2 PREFETCH  REQUESTED:          0  ISSUED:          0  USEFUL:          0  USELESS:          0
PSCL2 USEFUL LOAD PREFETCHES:          0 PREFETCH ISSUED TO LOWER LEVEL:          0  ACCURACY: -nan
PSCL2 TIMELY PREFETCHES:          0 LATE PREFETCHES: 0 DROPPED PREFETCHES: 0
PSCL2 COMMIT LATE PREFETCHES: 0 MISSED OPPORTUNITY: 0 LATE IN PQ: 0 UNCOVERED: 0
PSCL2 COMMIT LATE MSHR PREFETCHES: 0
PSCL2 MPKI TOTAL: 0 MSHR LATE: 0 PQ LATE: 0 COMMIT LATE: 0 MISSED OPPORTUNITY: 0 UNCOVERED: 0
PSCL2 PREFETCHES SAME FILL-ORIGIN LEVEL: 0 DIFFERENT FILL-ORIGIN LEVEL: 0

LLC SPEC fills:          0  NON-SPEC fills:      81571
LLC Test counter :    2488295
LLC Leapfrog:          0
LLC MSHR merge:          0
LLC TOTAL     ACCESS:    9025239  HIT:    2122127  MISS:    6903112  HIT %:    23.5132  MISS %:    76.4868   MPKI: 34.5156
LLC LOAD      TOTAL       ACCESS:    3082498  HIT:     675014  MISS:    2407484  HIT %:    21.8983  MISS %:    78.1017   MPKI: 12.0374
LLC LOAD      NON_SPEC    ACCESS:     117665  HIT:      36094  MISS:      81571  HIT %:    30.6752  MISS %:    69.3248   MPKI: 0.407855
LLC LOAD      SPEC        ACCESS:    2964833  HIT:     638920  MISS:    2325913  HIT %:    21.5499  MISS %:    78.4501   MPKI: 11.6296
LLC RFO       NON_SPEC    ACCESS:        287  HIT:          0  MISS:        287  HIT %:          0  MISS %:        100   MPKI: 0.001435
LLC PREFETCH  NON_SPEC    ACCESS:    2071592  HIT:     144541  MISS:    1927051  HIT %:    6.97729  MISS %:    93.0227   MPKI: 9.63525
LLC WRITEBACK NON_SPEC    ACCESS:     779077  HIT:     779066  MISS:         11  HIT %:    99.9986  MISS %: 0.00141193   MPKI: 5.5e-05
LLC CLEAN_EVICTION NON_SPEC    ACCESS:    2831690  HIT:     430460  MISS:    2401230  HIT %:    15.2015  MISS %:    84.7985   MPKI: 12.0061
LLC COMMIT LOAD NON_SPEC    ACCESS:     173664  HIT:      80129  MISS:      93535  HIT %:    46.1402  MISS %:    53.8598   MPKI: 0.467675
LLC LOAD TRANSLATION NON_SPEC    ACCESS:      86373  HIT:      12870  MISS:      73503  HIT %:    14.9005  MISS %:    85.0995   MPKI: 0.367515
LLC TRANSLATION FROM L1D PREFETCHER NON_SPEC    ACCESS:         58  HIT:         47  MISS:         11  HIT %:    81.0345  MISS %:    18.9655   MPKI: 5.5e-05
LLC PREFETCH  REQUESTED:          0  ISSUED:          0  USEFUL:          8  USELESS:    1927217
LLC USEFUL LOAD PREFETCHES:          8 PREFETCH ISSUED TO LOWER LEVEL:    1927053  ACCURACY: 0.000415142
LLC TIMELY PREFETCHES:          8 LATE PREFETCHES: 0 DROPPED PREFETCHES: 0
LLC COMMIT LATE PREFETCHES: 0 MISSED OPPORTUNITY: 0 LATE IN PQ: 0 UNCOVERED: 0
LLC COMMIT LATE MSHR PREFETCHES: 0
LLC MPKI TOTAL: 12.0374 MSHR LATE: 0 PQ LATE: 0 COMMIT LATE: 0 MISSED OPPORTUNITY: 0 UNCOVERED: 0
LLC PREFETCHES SAME FILL-ORIGIN LEVEL: 0 DIFFERENT FILL-ORIGIN LEVEL: 0
LLC AVERAGE MISS LATENCY: 114.684 cycles
LLC AVERAGE MISS LATENCY LOAD: 163.12 cycles
LLC AVERAGE MISS LATENCY PREFETCH: 189.926 cycles
LLC AVERAGE MSHR OCCUPANCY: 2.07696
LLC MSHR FULL: 0
LLC RQ	ACCESS:    3342888	FORWARD:          0	MERGED:          0	TO_CACHE:    3342880
LLC WQ	ACCESS:    3610767	FORWARD:          8	MERGED:          0	TO_CACHE:    3610767
LLC PQ	ACCESS:    2071594	FORWARD:          0	MERGED:          0	TO_CACHE:    2071594

LLC Dense regions hint to LLC: 0

RAW hits: 435692
Loads Generated: 128041519
Loads sent to L1D: 127605819
Stores Generated: 12822620
Stores sent to L1D: 12822617
Major fault: 0 Minor fault: 641201
Allocated PAGES: 641201
Total Load insts: 159469459
Total Non-spec loads: 7115858
Percentage of speculative loads: 95.5378

LeapFrogging counter: 1724369
Commit hits: 44240673 miss: 77597928
Commit hit %: 36.3109 miss %: 63.6891
Commits not translated: 0
Loads retired: 3182138
Stores retired: 12822617
Cache fills: 3182138
L1D response latency: 162.059 cycles
Load retirement latency: 428.164 cycles
OOO test counter: 0
Discarded buffer inserts: 44240673 hits: 36980 hit %: 0.0835882
Speculative prefetch buffer size: 0
CPU 0 L1D PC-based stride prefetcher final stats
Degree: 3

DRAM Statistics
 CHANNEL 0
 RQ ROW_BUFFER_HIT:    1095478  ROW_BUFFER_MISS:    3405458
 DBUS_CONGESTED:      22307
 WQ ROW_BUFFER_HIT:    1125499  ROW_BUFFER_MISS:    2143189  FULL:       1385

 AVG_CONGESTED_CYCLE: 5
 All warmup complete: 2
Channel 0 Bank busy for read cycles: 0
Channel 0 Bank busy for write cycles: 0
Channel 0
Rank 0
0banks busy for read cycles: 1881405
0banks busy for write cycles: 1971
1banks busy for read cycles: 143312160
1banks busy for write cycles: 1490163
2banks busy for read cycles: 74718286
2banks busy for write cycles: 1614101
3banks busy for read cycles: 42095766
3banks busy for write cycles: 1896731
4banks busy for read cycles: 18308344
4banks busy for write cycles: 2868834
5banks busy for read cycles: 7776786
5banks busy for write cycles: 6524254
6banks busy for read cycles: 4384147
6banks busy for write cycles: 17035314
7banks busy for read cycles: 1305673
7banks busy for write cycles: 37213949
8banks busy for read cycles: 252524
8banks busy for write cycles: 54151529

CPU 0 Branch Prediction Accuracy: 99.9931% MPKI: 0.00083 Average ROB Occupancy at Mispredict: 337.428
Branch types
NOT_BRANCH: 197595958 98.798%
BRANCH_DIRECT_JUMP: 160245 0.0801225%
BRANCH_INDIRECT: 0 0%
BRANCH_CONDITIONAL: 2243766 1.12188%
BRANCH_DIRECT_CALL: 0 0%
BRANCH_INDIRECT_CALL: 0 0%
BRANCH_RETURN: 0 0%
BRANCH_OTHER: 0 0%

DRAM PAGES: 1048576
Allocated PAGES: 641201
