
*** ChampSim Multicore Out-of-Order Simulator ***

Warmup Instructions: 50000000
Simulation Instructions: 200000000
Number of CPUs: 1
LLC sets: 2048
LLC ways: 16
L0D sets: 16
L0D ways: 2
ROB size: 352
LQ size: 128
SQ size: 72
Secure Berti: OFF
Berti: OFF
Berti Fill: OFF
On commit prefetching: ON
Hit-based filter: ON
Time-guarding: ON
Free-slotting: ON
Leap-frogging: ON
Train prefetcher on L0D bypass: OFF
No translation penalty for prefetchers: OFF
Prefetch to L0D only: OFF
Prefetch to L1D only: OFF
Clean evictions: ON
Commit loads: ON
Commit write: ON
Fill commit loads to L2C, LLC: ON
DRAM IO FREQUENCY: 6400
ROB SIZE: 352
Off-chip DRAM Size: 4096 MB Channels: 1 Width: 64-bit Data Rate: 6400 MT/s
CPU 0 runs /home/sumon/secure_berti/GhostMinion/../../traces/spec/654.roms_s-1390B.champsimtrace.xz
.xz
BTB has LRU replacement policy
ITLB has LRU replacement policy
DTLB has LRU replacement policy
STLB has LRU replacement policy
L1I has LRU replacement policy
L0D has LRU replacement policy
CPU 0 L1D IP-based stride prefetcher
L1D has LRU replacement policy
L2C has LRU replacement policy
LLC has LRU replacement policy
Heartbeat CPU 0 instructions: 10000001 cycles: 4182491 heartbeat IPC: 2.39092 cumulative IPC: 2.39092 (Simulation time: 0 hr 0 min 47 sec) 
Heartbeat CPU 0 instructions: 20000002 cycles: 7813142 heartbeat IPC: 2.75433 cumulative IPC: 2.55979 (Simulation time: 0 hr 1 min 20 sec) 
Heartbeat CPU 0 instructions: 30000001 cycles: 11229873 heartbeat IPC: 2.92677 cumulative IPC: 2.67145 (Simulation time: 0 hr 1 min 50 sec) 
Heartbeat CPU 0 instructions: 40000002 cycles: 15265319 heartbeat IPC: 2.47804 cumulative IPC: 2.62032 (Simulation time: 0 hr 2 min 29 sec) 
Heartbeat CPU 0 instructions: 50000000 cycles: 19887882 heartbeat IPC: 2.1633 cumulative IPC: 2.51409 (Simulation time: 0 hr 3 min 14 sec) 

Warmup complete CPU 0 instructions: 50000001 cycles: 19887883 (Simulation time: 0 hr 3 min 14 sec) 

Heartbeat CPU 0 instructions: 60000001 cycles: 32756794 heartbeat IPC: 0.777067 cumulative IPC: 0.777067 (Simulation time: 0 hr 3 min 51 sec) 
Heartbeat CPU 0 instructions: 70000003 cycles: 44185128 heartbeat IPC: 0.875018 cumulative IPC: 0.823139 (Simulation time: 0 hr 4 min 26 sec) 
Heartbeat CPU 0 instructions: 80000002 cycles: 55609495 heartbeat IPC: 0.875322 cumulative IPC: 0.839828 (Simulation time: 0 hr 5 min 1 sec) 
Heartbeat CPU 0 instructions: 90000003 cycles: 69265032 heartbeat IPC: 0.732304 cumulative IPC: 0.810091 (Simulation time: 0 hr 5 min 56 sec) 
Heartbeat CPU 0 instructions: 100000000 cycles: 83754873 heartbeat IPC: 0.690139 cumulative IPC: 0.782877 (Simulation time: 0 hr 6 min 48 sec) 
Heartbeat CPU 0 instructions: 110000000 cycles: 99194232 heartbeat IPC: 0.647695 cumulative IPC: 0.75656 (Simulation time: 0 hr 7 min 36 sec) 
Heartbeat CPU 0 instructions: 120000001 cycles: 111456154 heartbeat IPC: 0.815533 cumulative IPC: 0.764457 (Simulation time: 0 hr 8 min 12 sec) 
Heartbeat CPU 0 instructions: 130000000 cycles: 123547246 heartbeat IPC: 0.827055 cumulative IPC: 0.771759 (Simulation time: 0 hr 8 min 52 sec) 
Heartbeat CPU 0 instructions: 140000001 cycles: 142759994 heartbeat IPC: 0.520488 cumulative IPC: 0.732469 (Simulation time: 0 hr 10 min 8 sec) 
Heartbeat CPU 0 instructions: 150000000 cycles: 159115372 heartbeat IPC: 0.61142 cumulative IPC: 0.718249 (Simulation time: 0 hr 11 min 15 sec) 
Heartbeat CPU 0 instructions: 160000002 cycles: 169315667 heartbeat IPC: 0.980364 cumulative IPC: 0.736142 (Simulation time: 0 hr 12 min 32 sec) 
Heartbeat CPU 0 instructions: 170000000 cycles: 180060915 heartbeat IPC: 0.930644 cumulative IPC: 0.74919 (Simulation time: 0 hr 13 min 41 sec) 
Heartbeat CPU 0 instructions: 180000003 cycles: 191126252 heartbeat IPC: 0.903723 cumulative IPC: 0.759176 (Simulation time: 0 hr 14 min 45 sec) 
Heartbeat CPU 0 instructions: 190000000 cycles: 203756306 heartbeat IPC: 0.791762 cumulative IPC: 0.761414 (Simulation time: 0 hr 15 min 36 sec) 
Heartbeat CPU 0 instructions: 200000003 cycles: 223854832 heartbeat IPC: 0.497549 cumulative IPC: 0.735413 (Simulation time: 0 hr 16 min 26 sec) 
Heartbeat CPU 0 instructions: 210000001 cycles: 234501821 heartbeat IPC: 0.939232 cumulative IPC: 0.745525 (Simulation time: 0 hr 17 min 23 sec) 
Heartbeat CPU 0 instructions: 220000000 cycles: 250761975 heartbeat IPC: 0.615 cumulative IPC: 0.736332 (Simulation time: 0 hr 18 min 22 sec) 
Heartbeat CPU 0 instructions: 230000002 cycles: 269414063 heartbeat IPC: 0.536133 cumulative IPC: 0.721367 (Simulation time: 0 hr 19 min 14 sec) 
Heartbeat CPU 0 instructions: 240000002 cycles: 283199846 heartbeat IPC: 0.725385 cumulative IPC: 0.721578 (Simulation time: 0 hr 20 min 4 sec) 
Heartbeat CPU 0 instructions: 250000003 cycles: 293431021 heartbeat IPC: 0.977405 cumulative IPC: 0.731146 (Simulation time: 0 hr 20 min 51 sec) 
Finished CPU 0 instructions: 200000002 cycles: 273543138 cumulative IPC: 0.731146 (Simulation time: 0 hr 20 min 51 sec) 
 Instruction ID: 250000088

ChampSim completed all CPUs

Region of Interest Statistics

CPU 0 cumulative IPC: 0.731146 instructions: 200000002 cycles: 273543138
ITLB SPEC fills:          0  NON-SPEC fills:          0
ITLB Test counter :          0
ITLB Leapfrog:          0
ITLB MSHR merge:          0
ITLB TOTAL     ACCESS:   29869863  HIT:   29869856  MISS:          7  HIT %:        100  MISS %: 2.3435e-05   MPKI: 3.5e-05
ITLB LOAD TRANSLATION NON_SPEC    ACCESS:   29869863  HIT:   29869856  MISS:          7  HIT %:        100  MISS %: 2.3435e-05   MPKI: 3.5e-05
ITLB PREFETCH  REQUESTED:          0  ISSUED:          0  USEFUL:          0  USELESS:          0
ITLB USEFUL LOAD PREFETCHES:          0 PREFETCH ISSUED TO LOWER LEVEL:          0  ACCURACY: -nan
ITLB TIMELY PREFETCHES:          0 LATE PREFETCHES: 0 DROPPED PREFETCHES: 0
ITLB COMMIT LATE PREFETCHES: 0 MISSED OPPORTUNITY: 0 LATE IN PQ: 0 UNCOVERED: 0
ITLB COMMIT LATE MSHR PREFETCHES: 0
ITLB MPKI TOTAL: 0 MSHR LATE: 0 PQ LATE: 0 COMMIT LATE: 0 MISSED OPPORTUNITY: 0 UNCOVERED: 0
ITLB PREFETCHES SAME FILL-ORIGIN LEVEL: 0 DIFFERENT FILL-ORIGIN LEVEL: 0
ITLB AVERAGE MISS LATENCY: 697.714 cycles
ITLB AVERAGE MISS LATENCY LOAD: -nan cycles
ITLB AVERAGE MISS LATENCY PREFETCH: -nan cycles
ITLB AVERAGE MSHR OCCUPANCY: 3.34786e-08
ITLB MSHR FULL: 0
ITLB RQ	ACCESS:   35680185	FORWARD:          0	MERGED:    5810321	TO_CACHE:   29869864

DTLB SPEC fills:          0  NON-SPEC fills:          0
DTLB Test counter :          0
DTLB Leapfrog:          0
DTLB MSHR merge:          0
DTLB TOTAL     ACCESS:   57566741  HIT:   57395092  MISS:     171649  HIT %:    99.7018  MISS %:   0.298174   MPKI: 0.858245
DTLB LOAD TRANSLATION NON_SPEC    ACCESS:   57566741  HIT:   57395092  MISS:     171649  HIT %:    99.7018  MISS %:   0.298174   MPKI: 0.858245
DTLB PREFETCH  REQUESTED:          0  ISSUED:          0  USEFUL:          0  USELESS:          0
DTLB USEFUL LOAD PREFETCHES:          0 PREFETCH ISSUED TO LOWER LEVEL:          0  ACCURACY: -nan
DTLB TIMELY PREFETCHES:          0 LATE PREFETCHES: 0 DROPPED PREFETCHES: 0
DTLB COMMIT LATE PREFETCHES: 0 MISSED OPPORTUNITY: 0 LATE IN PQ: 0 UNCOVERED: 0
DTLB COMMIT LATE MSHR PREFETCHES: 0
DTLB MPKI TOTAL: 0 MSHR LATE: 0 PQ LATE: 0 COMMIT LATE: 0 MISSED OPPORTUNITY: 0 UNCOVERED: 0
DTLB PREFETCHES SAME FILL-ORIGIN LEVEL: 0 DIFFERENT FILL-ORIGIN LEVEL: 0
DTLB AVERAGE MISS LATENCY: 161.33 cycles
DTLB AVERAGE MISS LATENCY LOAD: -nan cycles
DTLB AVERAGE MISS LATENCY PREFETCH: -nan cycles
DTLB AVERAGE MSHR OCCUPANCY: 0.107187
DTLB MSHR FULL: 0.00848957
DTLB RQ	ACCESS:   68216286	FORWARD:          0	MERGED:   10537037	TO_CACHE:   57679249

STLB SPEC fills:          0  NON-SPEC fills:          0
STLB Test counter :          0
STLB Leapfrog:          0
STLB MSHR merge:          0
STLB TOTAL     ACCESS:    7997012  HIT:    7881691  MISS:     115321  HIT %:    98.5579  MISS %:    1.44205   MPKI: 0.576605
STLB LOAD TRANSLATION NON_SPEC    ACCESS:     171656  HIT:      56335  MISS:     115321  HIT %:    32.8185  MISS %:    67.1815   MPKI: 0.576605
STLB TRANSLATION FROM L1D PREFETCHER NON_SPEC    ACCESS:    7825356  HIT:    7825356  MISS:          0  HIT %:        100  MISS %:          0   MPKI: 0
STLB PREFETCH  REQUESTED:          0  ISSUED:          0  USEFUL:          0  USELESS:          0
STLB USEFUL LOAD PREFETCHES:          0 PREFETCH ISSUED TO LOWER LEVEL:          0  ACCURACY: -nan
STLB TIMELY PREFETCHES:          0 LATE PREFETCHES: 0 DROPPED PREFETCHES: 0
STLB COMMIT LATE PREFETCHES: 0 MISSED OPPORTUNITY: 0 LATE IN PQ: 0 UNCOVERED: 0
STLB COMMIT LATE MSHR PREFETCHES: 0
STLB MPKI TOTAL: 0 MSHR LATE: 0 PQ LATE: 0 COMMIT LATE: 0 MISSED OPPORTUNITY: 0 UNCOVERED: 0
STLB PREFETCHES SAME FILL-ORIGIN LEVEL: 0 DIFFERENT FILL-ORIGIN LEVEL: 0
STLB AVERAGE MISS LATENCY: 226.544 cycles
STLB AVERAGE MISS LATENCY LOAD: -nan cycles
STLB AVERAGE MISS LATENCY PREFETCH: -nan cycles
STLB AVERAGE MSHR OCCUPANCY: 0.0230738
STLB MSHR FULL: 0
STLB RQ	ACCESS:   22924005	FORWARD:          0	MERGED:   14923506	TO_CACHE:    8000499

STLB Hit, L1D data hit: 0
STLB Hit, L2C data hit: 0
STLB Hit, LLC data hit: 0
STLB Hit, LLC data miss: 0
STLB STLB hints to L2: 0
L0D SPEC fills:   29499837  NON-SPEC fills:          0
L0D TimeGuard Request with older TS:    2415167 Restricted eviction:    2002832 read:     970119
L0D Test counter :          0
L0D Leapfrog:          0
L0D MSHR merge:    4620642
L0D TOTAL     ACCESS:   51276689  HIT:   13626127  MISS:   37650562  HIT %:    26.5737  MISS %:    73.4263   MPKI: 188.253
L0D LOAD      TOTAL       ACCESS:   51276689  HIT:   13626127  MISS:   37650562  HIT %:    26.5737  MISS %:    73.4263   MPKI: 188.253
L0D LOAD      NON_SPEC    ACCESS:    6377573  HIT:     229036  MISS:    6148537  HIT %:    3.59127  MISS %:    96.4087   MPKI: 30.7427
L0D LOAD      SPEC        ACCESS:   44899116  HIT:   13397091  MISS:   31502025  HIT %:    29.8382  MISS %:    70.1618   MPKI: 157.51
L0D PREFETCH  REQUESTED:          0  ISSUED:          0  USEFUL:          0  USELESS:          0
L0D USEFUL LOAD PREFETCHES:          0 PREFETCH ISSUED TO LOWER LEVEL:          0  ACCURACY: -nan
L0D TIMELY PREFETCHES:          0 LATE PREFETCHES: 0 DROPPED PREFETCHES: 0
L0D COMMIT LATE PREFETCHES: 0 MISSED OPPORTUNITY: 0 LATE IN PQ: 0 UNCOVERED: 0
L0D COMMIT LATE MSHR PREFETCHES: 0
L0D MPKI TOTAL: 211.356 MSHR LATE: 0 PQ LATE: 0 COMMIT LATE: 0 MISSED OPPORTUNITY: 0 UNCOVERED: 0
L0D PREFETCHES SAME FILL-ORIGIN LEVEL: 0 DIFFERENT FILL-ORIGIN LEVEL: 0
L0D AVERAGE MISS LATENCY: 11.9671 cycles
L0D AVERAGE MISS LATENCY LOAD: 11.9671 cycles
L0D AVERAGE MISS LATENCY PREFETCH: -nan cycles
L0D AVERAGE MSHR OCCUPANCY: 1.8538
L0D MSHR FULL: 0.015993
L0D RQ	ACCESS:   77188486	FORWARD:          0	MERGED:   21291154	TO_CACHE:   55897332
L0D WQ	ACCESS:   12318954	FORWARD:          0	MERGED:          0	TO_CACHE:   12318954

L1D SPEC fills:          0  NON-SPEC fills:      66540
L1D Test counter :    1058828
L1D Leapfrog:          0
L1D MSHR merge:     847864
L1D TOTAL     ACCESS:   68182703  HIT:   60938800  MISS:    7243903  HIT %:    89.3757  MISS %:    10.6243   MPKI: 36.2195
L1D LOAD      TOTAL       ACCESS:   37629842  HIT:   36228246  MISS:    1401596  HIT %:    96.2753  MISS %:    3.72469   MPKI: 7.00798
L1D LOAD      NON_SPEC    ACCESS:    6147913  HIT:    6081373  MISS:      66540  HIT %:    98.9177  MISS %:    1.08232   MPKI: 0.3327
L1D LOAD      SPEC        ACCESS:   31481929  HIT:   30146873  MISS:    1335056  HIT %:    95.7593  MISS %:    4.24071   MPKI: 6.67528
L1D RFO       NON_SPEC    ACCESS:   11575474  HIT:   11353148  MISS:     222326  HIT %:    98.0793  MISS %:    1.92066   MPKI: 1.11163
L1D PREFETCH  NON_SPEC    ACCESS:   15461948  HIT:   10995269  MISS:    4466679  HIT %:    71.1118  MISS %:    28.8882   MPKI: 22.3334
L1D COMMIT LOAD NON_SPEC    ACCESS:    2091100  HIT:    2023374  MISS:      67726  HIT %:    96.7612  MISS %:    3.23877   MPKI: 0.33863
L1D COMMIT WRITE NON_SPEC    ACCESS:    1424339  HIT:     338763  MISS:    1085576  HIT %:    23.7839  MISS %:    76.2161   MPKI: 5.42788
L1D PREFETCH  REQUESTED:   28090580  ISSUED:   27863817  USEFUL:    3347470  USELESS:    1119369
L1D USEFUL LOAD PREFETCHES:    3347470 PREFETCH ISSUED TO LOWER LEVEL:    7310093  ACCURACY: 45.7924
L1D TIMELY PREFETCHES:    3347470 LATE PREFETCHES: 835426 DROPPED PREFETCHES: 0
L1D COMMIT LATE PREFETCHES: 0 MISSED OPPORTUNITY: 0 LATE IN PQ: 0 UNCOVERED: 0
L1D COMMIT LATE MSHR PREFETCHES: 0
L1D MPKI TOTAL: 7.11158 MSHR LATE: 4.17713 PQ LATE: 0 COMMIT LATE: 0 MISSED OPPORTUNITY: 0 UNCOVERED: 0
L1D PREFETCHES SAME FILL-ORIGIN LEVEL: 5411838 DIFFERENT FILL-ORIGIN LEVEL: 1898255
L1D AVERAGE MISS LATENCY: 179.322 cycles
L1D AVERAGE MISS LATENCY LOAD: 183.562 cycles
L1D AVERAGE MISS LATENCY PREFETCH: 229.636 cycles
L1D AVERAGE MSHR OCCUPANCY: 5.87891
L1D MSHR FULL: 0.00353403
L1D RQ	ACCESS:   42002056	FORWARD:          0	MERGED:    2206373	TO_CACHE:   39764171
L1D WQ	ACCESS:   13747974	FORWARD:      31512	MERGED:      74112	TO_CACHE:   13673862
L1D PQ	ACCESS:   27863817	FORWARD:          0	MERGED:    5111468	TO_CACHE:   22752349

L1D UNIQUE REGIONS ACCESSED: 0
L1D REGIONS CONFLICTS: 0
L1D Cross Page Prefetch Requests: 0
L1D Same Page Prefetch Requests: 34658237
L1D ROI Sum of L1D PQ occupancy: 349652260
L1D PREFETCHES PUSHED FROM L2C: 0
L1I SPEC fills:          0  NON-SPEC fills:          0
L1I Test counter :          0
L1I Leapfrog:          0
L1I MSHR merge:        365
L1I TOTAL     ACCESS:   35679818  HIT:   35679048  MISS:        770  HIT %:    99.9978  MISS %: 0.00215808   MPKI: 0.00385
L1I LOAD      TOTAL       ACCESS:   35679818  HIT:   35679048  MISS:        770  HIT %:    99.9978  MISS %: 0.00215808   MPKI: 0.00385
L1I LOAD      NON_SPEC    ACCESS:   35679818  HIT:   35679048  MISS:        770  HIT %:    99.9978  MISS %: 0.00215808   MPKI: 0.00385
L1I PREFETCH  REQUESTED:          0  ISSUED:          0  USEFUL:          0  USELESS:          0
L1I USEFUL LOAD PREFETCHES:          0 PREFETCH ISSUED TO LOWER LEVEL:          0  ACCURACY: -nan
L1I TIMELY PREFETCHES:          0 LATE PREFETCHES: 0 DROPPED PREFETCHES: 0
L1I COMMIT LATE PREFETCHES: 0 MISSED OPPORTUNITY: 0 LATE IN PQ: 0 UNCOVERED: 0
L1I COMMIT LATE MSHR PREFETCHES: 0
L1I MPKI TOTAL: 0.005675 MSHR LATE: 0 PQ LATE: 0 COMMIT LATE: 0 MISSED OPPORTUNITY: 0 UNCOVERED: 0
L1I PREFETCHES SAME FILL-ORIGIN LEVEL: 0 DIFFERENT FILL-ORIGIN LEVEL: 0
L1I AVERAGE MISS LATENCY: 261.279 cycles
L1I AVERAGE MISS LATENCY LOAD: 261.279 cycles
L1I AVERAGE MISS LATENCY PREFETCH: -nan cycles
L1I AVERAGE MSHR OCCUPANCY: 2.58407e-05
L1I MSHR FULL: 0
L1I RQ	ACCESS:   50445865	FORWARD:          0	MERGED:   14765680	TO_CACHE:   35680185

BTB SPEC fills:          0  NON-SPEC fills:          0
BTB Test counter :          0
BTB Leapfrog:          0
BTB MSHR merge:          0
BTB TOTAL     ACCESS:    7433878  HIT:    7433569  MISS:        309  HIT %:    99.9958  MISS %: 0.00415665   MPKI: 0.001545
BTB BRANCH_DIRECT_JUMP	ACCESS:       1193  HIT:       1166  MISS:         27
BTB BRANCH_INDIRECT	ACCESS:          0  HIT:          0  MISS:          0
BTB BRANCH_CONDITIONAL	ACCESS:    7432411  HIT:    7432254  MISS:        157
BTB BRANCH_DIRECT_CALL	ACCESS:        137  HIT:         76  MISS:         61
BTB BRANCH_INDIRECT_CALL	ACCESS:          0  HIT:          0  MISS:          0
BTB BRANCH_RETURN	ACCESS:        137  HIT:         73  MISS:         64
BTB BRANCH_OTHER ACCESS:          0  HIT:          0  MISS:          0

L2C SPEC fills:          0  NON-SPEC fills:      24139
L2C Test counter :    1045682
L2C Leapfrog:          0
L2C MSHR merge:      19816
L2C TOTAL     ACCESS:   10210197  HIT:    4716495  MISS:    5493702  HIT %:     46.194  MISS %:     53.806   MPKI: 27.4685
L2C LOAD      TOTAL       ACCESS:     573790  HIT:     301418  MISS:     272372  HIT %:    52.5311  MISS %:    47.4689   MPKI: 1.36186
L2C LOAD      NON_SPEC    ACCESS:      48607  HIT:      23698  MISS:      24909  HIT %:    48.7543  MISS %:    51.2457   MPKI: 0.124545
L2C LOAD      SPEC        ACCESS:     525183  HIT:     277720  MISS:     247463  HIT %:    52.8806  MISS %:    47.1194   MPKI: 1.23731
L2C RFO       NON_SPEC    ACCESS:     112659  HIT:      73523  MISS:      39136  HIT %:    65.2615  MISS %:    34.7385   MPKI: 0.19568
L2C PREFETCH  NON_SPEC    ACCESS:    6556116  HIT:    1583355  MISS:    4972761  HIT %:    24.1508  MISS %:    75.8492   MPKI: 24.8638
L2C WRITEBACK NON_SPEC    ACCESS:    1272946  HIT:    1272926  MISS:         20  HIT %:    99.9984  MISS %: 0.00157116   MPKI: 0.0001
L2C CLEAN_EVICTION NON_SPEC    ACCESS:    1058709  HIT:     883817  MISS:     174892  HIT %:    83.4806  MISS %:    16.5194   MPKI: 0.87446
L2C COMMIT LOAD NON_SPEC    ACCESS:      59444  HIT:      49146  MISS:      10298  HIT %:    82.6761  MISS %:    17.3239   MPKI: 0.05149
L2C LOAD TRANSLATION NON_SPEC    ACCESS:     576533  HIT:     552310  MISS:      24223  HIT %:    95.7985  MISS %:    4.20149   MPKI: 0.121115
L2C PREFETCH  REQUESTED:          0  ISSUED:          0  USEFUL:     269418  USELESS:    4704533
L2C USEFUL LOAD PREFETCHES:     269418 PREFETCH ISSUED TO LOWER LEVEL:    4996138  ACCURACY: 5.39253
L2C TIMELY PREFETCHES:     269418 LATE PREFETCHES: 23360 DROPPED PREFETCHES: 0
L2C COMMIT LATE PREFETCHES: 0 MISSED OPPORTUNITY: 0 LATE IN PQ: 0 UNCOVERED: 0
L2C COMMIT LATE MSHR PREFETCHES: 0
L2C MPKI TOTAL: 1.36186 MSHR LATE: 0.1168 PQ LATE: 0 COMMIT LATE: 0 MISSED OPPORTUNITY: 0 UNCOVERED: 0
L2C PREFETCHES SAME FILL-ORIGIN LEVEL: 1071621 DIFFERENT FILL-ORIGIN LEVEL: 0
L2C AVERAGE MISS LATENCY: 313.259 cycles
L2C AVERAGE MISS LATENCY LOAD: 253.248 cycles
L2C AVERAGE MISS LATENCY PREFETCH: 328.109 cycles
L2C AVERAGE MSHR OCCUPANCY: 6.40117
L2C MSHR FULL: 0.000518602
L2C RQ	ACCESS:    1323860	FORWARD:          0	MERGED:          0	TO_CACHE:    1322426
L2C WQ	ACCESS:    2333217	FORWARD:       1569	MERGED:       1562	TO_CACHE:    2331655
L2C PQ	ACCESS:    7305595	FORWARD:          0	MERGED:         52	TO_CACHE:    7305408

L2C Instructions Evicting Data 770
L2C Translations Evicting Data 24115
L2C Data Evicting Data 5022396
L2C Instructions Evicting Instructions 0
L2C Translations Evicting Instructions 6
L2C Data Evicting Instructions 730
L2C Instructions Evicting Translations 0
L2C Translations Evicting Translations 102
L2C Data Evicting Translations 23208
L2C Dense regions hint from L2: 0
PSCL5 SPEC fills:          0  NON-SPEC fills:          0
PSCL5 Test counter :          0
PSCL5 Leapfrog:          0
PSCL5 MSHR merge:          0
PSCL5 TOTAL     ACCESS:          0  HIT:          0  MISS:          0  HIT %:       -nan  MISS %:       -nan   MPKI: 0
PSCL5 PREFETCH  REQUESTED:          0  ISSUED:          0  USEFUL:          0  USELESS:          0
PSCL5 USEFUL LOAD PREFETCHES:          0 PREFETCH ISSUED TO LOWER LEVEL:          0  ACCURACY: -nan
PSCL5 TIMELY PREFETCHES:          0 LATE PREFETCHES: 0 DROPPED PREFETCHES: 0
PSCL5 COMMIT LATE PREFETCHES: 0 MISSED OPPORTUNITY: 0 LATE IN PQ: 0 UNCOVERED: 0
PSCL5 COMMIT LATE MSHR PREFETCHES: 0
PSCL5 MPKI TOTAL: 0 MSHR LATE: 0 PQ LATE: 0 COMMIT LATE: 0 MISSED OPPORTUNITY: 0 UNCOVERED: 0
PSCL5 PREFETCHES SAME FILL-ORIGIN LEVEL: 0 DIFFERENT FILL-ORIGIN LEVEL: 0

PSCL4 SPEC fills:          0  NON-SPEC fills:          0
PSCL4 Test counter :          0
PSCL4 Leapfrog:          0
PSCL4 MSHR merge:          0
PSCL4 TOTAL     ACCESS:          0  HIT:          0  MISS:          0  HIT %:       -nan  MISS %:       -nan   MPKI: 0
PSCL4 PREFETCH  REQUESTED:          0  ISSUED:          0  USEFUL:          0  USELESS:          0
PSCL4 USEFUL LOAD PREFETCHES:          0 PREFETCH ISSUED TO LOWER LEVEL:          0  ACCURACY: -nan
PSCL4 TIMELY PREFETCHES:          0 LATE PREFETCHES: 0 DROPPED PREFETCHES: 0
PSCL4 COMMIT LATE PREFETCHES: 0 MISSED OPPORTUNITY: 0 LATE IN PQ: 0 UNCOVERED: 0
PSCL4 COMMIT LATE MSHR PREFETCHES: 0
PSCL4 MPKI TOTAL: 0 MSHR LATE: 0 PQ LATE: 0 COMMIT LATE: 0 MISSED OPPORTUNITY: 0 UNCOVERED: 0
PSCL4 PREFETCHES SAME FILL-ORIGIN LEVEL: 0 DIFFERENT FILL-ORIGIN LEVEL: 0

PSCL3 SPEC fills:          0  NON-SPEC fills:          0
PSCL3 Test counter :          0
PSCL3 Leapfrog:          0
PSCL3 MSHR merge:          0
PSCL3 TOTAL     ACCESS:          0  HIT:          0  MISS:          0  HIT %:       -nan  MISS %:       -nan   MPKI: 0
PSCL3 PREFETCH  REQUESTED:          0  ISSUED:          0  USEFUL:          0  USELESS:          0
PSCL3 USEFUL LOAD PREFETCHES:          0 PREFETCH ISSUED TO LOWER LEVEL:          0  ACCURACY: -nan
PSCL3 TIMELY PREFETCHES:          0 LATE PREFETCHES: 0 DROPPED PREFETCHES: 0
PSCL3 COMMIT LATE PREFETCHES: 0 MISSED OPPORTUNITY: 0 LATE IN PQ: 0 UNCOVERED: 0
PSCL3 COMMIT LATE MSHR PREFETCHES: 0
PSCL3 MPKI TOTAL: 0 MSHR LATE: 0 PQ LATE: 0 COMMIT LATE: 0 MISSED OPPORTUNITY: 0 UNCOVERED: 0
PSCL3 PREFETCHES SAME FILL-ORIGIN LEVEL: 0 DIFFERENT FILL-ORIGIN LEVEL: 0

PSCL2 SPEC fills:          0  NON-SPEC fills:          0
PSCL2 Test counter :          0
PSCL2 Leapfrog:          0
PSCL2 MSHR merge:          0
PSCL2 TOTAL     ACCESS:          0  HIT:          0  MISS:          0  HIT %:       -nan  MISS %:       -nan   MPKI: 0
PSCL2 PREFETCH  REQUESTED:          0  ISSUED:          0  USEFUL:          0  USELESS:          0
PSCL2 USEFUL LOAD PREFETCHES:          0 PREFETCH ISSUED TO LOWER LEVEL:          0  ACCURACY: -nan
PSCL2 TIMELY PREFETCHES:          0 LATE PREFETCHES: 0 DROPPED PREFETCHES: 0
PSCL2 COMMIT LATE PREFETCHES: 0 MISSED OPPORTUNITY: 0 LATE IN PQ: 0 UNCOVERED: 0
PSCL2 COMMIT LATE MSHR PREFETCHES: 0
PSCL2 MPKI TOTAL: 0 MSHR LATE: 0 PQ LATE: 0 COMMIT LATE: 0 MISSED OPPORTUNITY: 0 UNCOVERED: 0
PSCL2 PREFETCHES SAME FILL-ORIGIN LEVEL: 0 DIFFERENT FILL-ORIGIN LEVEL: 0

LLC SPEC fills:          0  NON-SPEC fills:      23647
LLC Test counter :    1042681
LLC Leapfrog:          0
LLC MSHR merge:          0
LLC TOTAL     ACCESS:    7623344  HIT:    2154868  MISS:    5468476  HIT %:    28.2667  MISS %:    71.7333   MPKI: 27.3424
LLC LOAD      TOTAL       ACCESS:     252554  HIT:       3242  MISS:     249312  HIT %:    1.28369  MISS %:    98.7163   MPKI: 1.24656
LLC LOAD      NON_SPEC    ACCESS:      24513  HIT:         96  MISS:      24417  HIT %:   0.391629  MISS %:    99.6084   MPKI: 0.122085
LLC LOAD      SPEC        ACCESS:     228041  HIT:       3146  MISS:     224895  HIT %:    1.37958  MISS %:    98.6204   MPKI: 1.12447
LLC RFO       NON_SPEC    ACCESS:      35592  HIT:         12  MISS:      35580  HIT %:  0.0337154  MISS %:    99.9663   MPKI: 0.1779
LLC PREFETCH  NON_SPEC    ACCESS:    4996121  HIT:       6938  MISS:    4989183  HIT %:   0.138868  MISS %:    99.8611   MPKI: 24.9459
LLC WRITEBACK NON_SPEC    ACCESS:    1258874  HIT:    1258848  MISS:         26  HIT %:    99.9979  MISS %: 0.00206534   MPKI: 0.00013
LLC CLEAN_EVICTION NON_SPEC    ACCESS:    1045682  HIT:     884349  MISS:     161333  HIT %:    84.5715  MISS %:    15.4285   MPKI: 0.806665
LLC COMMIT LOAD NON_SPEC    ACCESS:      10298  HIT:       1471  MISS:       8827  HIT %:    14.2843  MISS %:    85.7157   MPKI: 0.044135
LLC LOAD TRANSLATION NON_SPEC    ACCESS:      24223  HIT:          8  MISS:      24215  HIT %:  0.0330265  MISS %:     99.967   MPKI: 0.121075
LLC PREFETCH  REQUESTED:          0  ISSUED:          0  USEFUL:       1724  USELESS:    4987223
LLC USEFUL LOAD PREFETCHES:       1724 PREFETCH ISSUED TO LOWER LEVEL:    4989200  ACCURACY: 0.0345546
LLC TIMELY PREFETCHES:       1724 LATE PREFETCHES: 0 DROPPED PREFETCHES: 0
LLC COMMIT LATE PREFETCHES: 0 MISSED OPPORTUNITY: 0 LATE IN PQ: 0 UNCOVERED: 0
LLC COMMIT LATE MSHR PREFETCHES: 0
LLC MPKI TOTAL: 1.24656 MSHR LATE: 0 PQ LATE: 0 COMMIT LATE: 0 MISSED OPPORTUNITY: 0 UNCOVERED: 0
LLC PREFETCHES SAME FILL-ORIGIN LEVEL: 0 DIFFERENT FILL-ORIGIN LEVEL: 0
LLC AVERAGE MISS LATENCY: 287.136 cycles
LLC AVERAGE MISS LATENCY LOAD: 233.515 cycles
LLC AVERAGE MISS LATENCY PREFETCH: 299.562 cycles
LLC AVERAGE MSHR OCCUPANCY: 3.97328
LLC MSHR FULL: 0
LLC RQ	ACCESS:     322669	FORWARD:          0	MERGED:          0	TO_CACHE:     322667
LLC WQ	ACCESS:    2304556	FORWARD:          2	MERGED:          0	TO_CACHE:    2304556
LLC PQ	ACCESS:    4996138	FORWARD:          0	MERGED:          0	TO_CACHE:    4996138

LLC Dense regions hint to LLC: 0

RAW hits: 1214611
Loads Generated: 78403104
Loads sent to L1D: 77188486
Stores Generated: 12318967
Stores sent to L1D: 12318954
Major fault: 0 Minor fault: 55185
Allocated PAGES: 55185
Total Load insts: 114101684
Total Non-spec loads: 7367377
Percentage of speculative loads: 93.5432

LeapFrogging counter: 168821
Commit hits: 27612112 miss: 42918403
Commit hit %: 39.1492 miss %: 60.8508
Commits not translated: 0
Loads retired: 1401596
Stores retired: 12318954
Cache fills: 1401596
L1D response latency: 183.562 cycles
Load retirement latency: 268.33 cycles
OOO test counter: 0
Discarded buffer inserts: 27612112 hits: 40089 hit %: 0.145186
Speculative prefetch buffer size: 0
CPU 0 L1D PC-based stride prefetcher final stats
Degree: 3

DRAM Statistics
 CHANNEL 0
 RQ ROW_BUFFER_HIT:     846175  ROW_BUFFER_MISS:    4460942
 DBUS_CONGESTED:        847
 WQ ROW_BUFFER_HIT:     469728  ROW_BUFFER_MISS:    1836075  FULL:        224

 AVG_CONGESTED_CYCLE: 5
 All warmup complete: 2
Channel 0 Bank busy for read cycles: 0
Channel 0 Bank busy for write cycles: 0
Channel 0
Rank 0
0banks busy for read cycles: 8631751
0banks busy for write cycles: 15062
1banks busy for read cycles: 24974545
1banks busy for write cycles: 2260384
2banks busy for read cycles: 38193630
2banks busy for write cycles: 967994
3banks busy for read cycles: 39872380
3banks busy for write cycles: 524042
4banks busy for read cycles: 32450737
4banks busy for write cycles: 513455
5banks busy for read cycles: 27695057
5banks busy for write cycles: 566234
6banks busy for read cycles: 23873174
6banks busy for write cycles: 805793
7banks busy for read cycles: 10973831
7banks busy for write cycles: 4513482
8banks busy for read cycles: 4936464
8banks busy for write cycles: 51775124

CPU 0 Branch Prediction Accuracy: 99.7722% MPKI: 0.08495 Average ROB Occupancy at Mispredict: 205.453
Branch types
NOT_BRANCH: 192541227 96.2706%
BRANCH_DIRECT_JUMP: 1193 0.0005965%
BRANCH_INDIRECT: 0 0%
BRANCH_CONDITIONAL: 7457357 3.72868%
BRANCH_DIRECT_CALL: 137 6.85e-05%
BRANCH_INDIRECT_CALL: 0 0%
BRANCH_RETURN: 137 6.85e-05%
BRANCH_OTHER: 0 0%

DRAM PAGES: 1048576
Allocated PAGES: 55185
