
*** ChampSim Multicore Out-of-Order Simulator ***

Warmup Instructions: 50000000
Simulation Instructions: 200000000
Number of CPUs: 1
LLC sets: 2048
LLC ways: 16
L0D sets: 16
L0D ways: 2
ROB size: 352
LQ size: 128
SQ size: 72
Secure Berti: OFF
Berti: OFF
Berti Fill: OFF
On commit prefetching: ON
Hit-based filter: ON
Time-guarding: ON
Free-slotting: ON
Leap-frogging: ON
Train prefetcher on L0D bypass: OFF
No translation penalty for prefetchers: OFF
Prefetch to L0D only: OFF
Prefetch to L1D only: OFF
Clean evictions: ON
Commit loads: ON
Commit write: ON
Fill commit loads to L2C, LLC: ON
DRAM IO FREQUENCY: 6400
ROB SIZE: 352
Off-chip DRAM Size: 4096 MB Channels: 1 Width: 64-bit Data Rate: 6400 MT/s
CPU 0 runs /home/sumon/secure_berti/GhostMinion/../../traces/spec/654.roms_s-1070B.champsimtrace.xz
.xz
BTB has LRU replacement policy
ITLB has LRU replacement policy
DTLB has LRU replacement policy
STLB has LRU replacement policy
L1I has LRU replacement policy
L0D has LRU replacement policy
CPU 0 L1D IP-based stride prefetcher
L1D has LRU replacement policy
L2C has LRU replacement policy
LLC has LRU replacement policy
Heartbeat CPU 0 instructions: 10000002 cycles: 4623330 heartbeat IPC: 2.16294 cumulative IPC: 2.16294 (Simulation time: 0 hr 0 min 39 sec) 
Heartbeat CPU 0 instructions: 20000002 cycles: 8553594 heartbeat IPC: 2.54436 cumulative IPC: 2.3382 (Simulation time: 0 hr 1 min 16 sec) 
Heartbeat CPU 0 instructions: 30000003 cycles: 11769197 heartbeat IPC: 3.10984 cumulative IPC: 2.54903 (Simulation time: 0 hr 1 min 52 sec) 
Heartbeat CPU 0 instructions: 40000001 cycles: 17106238 heartbeat IPC: 1.8737 cumulative IPC: 2.33833 (Simulation time: 0 hr 2 min 30 sec) 
Heartbeat CPU 0 instructions: 50000001 cycles: 20448155 heartbeat IPC: 2.99229 cumulative IPC: 2.44521 (Simulation time: 0 hr 3 min 8 sec) 

Warmup complete CPU 0 instructions: 50000001 cycles: 20448155 (Simulation time: 0 hr 3 min 8 sec) 

Heartbeat CPU 0 instructions: 60000000 cycles: 36123514 heartbeat IPC: 0.637944 cumulative IPC: 0.637944 (Simulation time: 0 hr 4 min 6 sec) 
Heartbeat CPU 0 instructions: 70000002 cycles: 45309455 heartbeat IPC: 1.08862 cumulative IPC: 0.804463 (Simulation time: 0 hr 4 min 52 sec) 
Heartbeat CPU 0 instructions: 80000003 cycles: 58258569 heartbeat IPC: 0.772254 cumulative IPC: 0.793432 (Simulation time: 0 hr 5 min 45 sec) 
Heartbeat CPU 0 instructions: 90000000 cycles: 70333604 heartbeat IPC: 0.828155 cumulative IPC: 0.801837 (Simulation time: 0 hr 6 min 40 sec) 
Heartbeat CPU 0 instructions: 100000003 cycles: 79144501 heartbeat IPC: 1.13496 cumulative IPC: 0.851842 (Simulation time: 0 hr 7 min 26 sec) 
Heartbeat CPU 0 instructions: 110000000 cycles: 94748189 heartbeat IPC: 0.640874 cumulative IPC: 0.807537 (Simulation time: 0 hr 8 min 29 sec) 
Heartbeat CPU 0 instructions: 120000002 cycles: 103597656 heartbeat IPC: 1.13001 cumulative IPC: 0.841857 (Simulation time: 0 hr 9 min 16 sec) 
Heartbeat CPU 0 instructions: 130000002 cycles: 117307547 heartbeat IPC: 0.7294 cumulative IPC: 0.82594 (Simulation time: 0 hr 10 min 14 sec) 
Heartbeat CPU 0 instructions: 140000001 cycles: 128662797 heartbeat IPC: 0.88065 cumulative IPC: 0.83168 (Simulation time: 0 hr 11 min 11 sec) 
Heartbeat CPU 0 instructions: 150000003 cycles: 137822531 heartbeat IPC: 1.09174 cumulative IPC: 0.851975 (Simulation time: 0 hr 12 min 1 sec) 
Heartbeat CPU 0 instructions: 160000000 cycles: 153195660 heartbeat IPC: 0.650485 cumulative IPC: 0.828641 (Simulation time: 0 hr 13 min 6 sec) 
Heartbeat CPU 0 instructions: 170000000 cycles: 162017838 heartbeat IPC: 1.13351 cumulative IPC: 0.847639 (Simulation time: 0 hr 13 min 53 sec) 
Heartbeat CPU 0 instructions: 180000002 cycles: 175829053 heartbeat IPC: 0.724049 cumulative IPC: 0.836654 (Simulation time: 0 hr 14 min 51 sec) 
Heartbeat CPU 0 instructions: 190000000 cycles: 186650447 heartbeat IPC: 0.924095 cumulative IPC: 0.842347 (Simulation time: 0 hr 15 min 44 sec) 
Heartbeat CPU 0 instructions: 200000001 cycles: 197588615 heartbeat IPC: 0.91423 cumulative IPC: 0.846786 (Simulation time: 0 hr 16 min 34 sec) 
Heartbeat CPU 0 instructions: 210000001 cycles: 212412735 heartbeat IPC: 0.674576 cumulative IPC: 0.833487 (Simulation time: 0 hr 17 min 28 sec) 
Heartbeat CPU 0 instructions: 220000000 cycles: 224663903 heartbeat IPC: 0.816249 cumulative IPC: 0.832453 (Simulation time: 0 hr 18 min 10 sec) 
Heartbeat CPU 0 instructions: 230000002 cycles: 239905325 heartbeat IPC: 0.656107 cumulative IPC: 0.820206 (Simulation time: 0 hr 19 min 0 sec) 
Heartbeat CPU 0 instructions: 240000000 cycles: 252813577 heartbeat IPC: 0.774698 cumulative IPC: 0.817678 (Simulation time: 0 hr 19 min 43 sec) 
Heartbeat CPU 0 instructions: 250000001 cycles: 265474478 heartbeat IPC: 0.789833 cumulative IPC: 0.816239 (Simulation time: 0 hr 20 min 21 sec) 
Finished CPU 0 instructions: 200000000 cycles: 245026323 cumulative IPC: 0.816239 (Simulation time: 0 hr 20 min 21 sec) 
 Instruction ID: 250000357

ChampSim completed all CPUs

Region of Interest Statistics

CPU 0 cumulative IPC: 0.816239 instructions: 200000000 cycles: 245026323
ITLB SPEC fills:          0  NON-SPEC fills:          0
ITLB Test counter :          0
ITLB Leapfrog:          0
ITLB MSHR merge:          0
ITLB TOTAL     ACCESS:   29236624  HIT:   29236623  MISS:          1  HIT %:        100  MISS %: 3.42037e-06   MPKI: 5e-06
ITLB LOAD TRANSLATION NON_SPEC    ACCESS:   29236624  HIT:   29236623  MISS:          1  HIT %:        100  MISS %: 3.42037e-06   MPKI: 5e-06
ITLB PREFETCH  REQUESTED:          0  ISSUED:          0  USEFUL:          0  USELESS:          0
ITLB USEFUL LOAD PREFETCHES:          0 PREFETCH ISSUED TO LOWER LEVEL:          0  ACCURACY: -nan
ITLB TIMELY PREFETCHES:          0 LATE PREFETCHES: 0 DROPPED PREFETCHES: 0
ITLB COMMIT LATE PREFETCHES: 0 MISSED OPPORTUNITY: 0 LATE IN PQ: 0 UNCOVERED: 0
ITLB COMMIT LATE MSHR PREFETCHES: 0
ITLB MPKI TOTAL: 0 MSHR LATE: 0 PQ LATE: 0 COMMIT LATE: 0 MISSED OPPORTUNITY: 0 UNCOVERED: 0
ITLB PREFETCHES SAME FILL-ORIGIN LEVEL: 0 DIFFERENT FILL-ORIGIN LEVEL: 0
ITLB AVERAGE MISS LATENCY: 564 cycles
ITLB AVERAGE MISS LATENCY LOAD: -nan cycles
ITLB AVERAGE MISS LATENCY PREFETCH: -nan cycles
ITLB AVERAGE MSHR OCCUPANCY: 0
ITLB MSHR FULL: 0
ITLB RQ	ACCESS:   33464907	FORWARD:          0	MERGED:    4228284	TO_CACHE:   29236623

DTLB SPEC fills:          0  NON-SPEC fills:          0
DTLB Test counter :          0
DTLB Leapfrog:          0
DTLB MSHR merge:          0
DTLB TOTAL     ACCESS:   56051825  HIT:   55946249  MISS:     105576  HIT %:    99.8116  MISS %:   0.188354   MPKI: 0.52788
DTLB LOAD TRANSLATION NON_SPEC    ACCESS:   56051825  HIT:   55946249  MISS:     105576  HIT %:    99.8116  MISS %:   0.188354   MPKI: 0.52788
DTLB PREFETCH  REQUESTED:          0  ISSUED:          0  USEFUL:          0  USELESS:          0
DTLB USEFUL LOAD PREFETCHES:          0 PREFETCH ISSUED TO LOWER LEVEL:          0  ACCURACY: -nan
DTLB TIMELY PREFETCHES:          0 LATE PREFETCHES: 0 DROPPED PREFETCHES: 0
DTLB COMMIT LATE PREFETCHES: 0 MISSED OPPORTUNITY: 0 LATE IN PQ: 0 UNCOVERED: 0
DTLB COMMIT LATE MSHR PREFETCHES: 0
DTLB MPKI TOTAL: 0 MSHR LATE: 0 PQ LATE: 0 COMMIT LATE: 0 MISSED OPPORTUNITY: 0 UNCOVERED: 0
DTLB PREFETCHES SAME FILL-ORIGIN LEVEL: 0 DIFFERENT FILL-ORIGIN LEVEL: 0
DTLB AVERAGE MISS LATENCY: 233.261 cycles
DTLB AVERAGE MISS LATENCY LOAD: -nan cycles
DTLB AVERAGE MISS LATENCY PREFETCH: -nan cycles
DTLB AVERAGE MSHR OCCUPANCY: 0.0339946
DTLB MSHR FULL: 8.3558e-05
DTLB RQ	ACCESS:   63754248	FORWARD:          0	MERGED:    7570424	TO_CACHE:   56183824

STLB SPEC fills:          0  NON-SPEC fills:          0
STLB Test counter :          0
STLB Leapfrog:          0
STLB MSHR merge:          0
STLB TOTAL     ACCESS:    6662340  HIT:    6566126  MISS:      96214  HIT %:    98.5559  MISS %:    1.44415   MPKI: 0.48107
STLB LOAD TRANSLATION NON_SPEC    ACCESS:     105577  HIT:       9363  MISS:      96214  HIT %:    8.86841  MISS %:    91.1316   MPKI: 0.48107
STLB TRANSLATION FROM L1D PREFETCHER NON_SPEC    ACCESS:    6556763  HIT:    6556763  MISS:          0  HIT %:        100  MISS %:          0   MPKI: 0
STLB PREFETCH  REQUESTED:          0  ISSUED:          0  USEFUL:          0  USELESS:          0
STLB USEFUL LOAD PREFETCHES:          0 PREFETCH ISSUED TO LOWER LEVEL:          0  ACCURACY: -nan
STLB TIMELY PREFETCHES:          0 LATE PREFETCHES: 0 DROPPED PREFETCHES: 0
STLB COMMIT LATE PREFETCHES: 0 MISSED OPPORTUNITY: 0 LATE IN PQ: 0 UNCOVERED: 0
STLB COMMIT LATE MSHR PREFETCHES: 0
STLB MPKI TOTAL: 0 MSHR LATE: 0 PQ LATE: 0 COMMIT LATE: 0 MISSED OPPORTUNITY: 0 UNCOVERED: 0
STLB PREFETCHES SAME FILL-ORIGIN LEVEL: 0 DIFFERENT FILL-ORIGIN LEVEL: 0
STLB AVERAGE MISS LATENCY: 246.122 cycles
STLB AVERAGE MISS LATENCY LOAD: -nan cycles
STLB AVERAGE MISS LATENCY PREFETCH: -nan cycles
STLB AVERAGE MSHR OCCUPANCY: 0.0242101
STLB MSHR FULL: 0
STLB RQ	ACCESS:   19378913	FORWARD:          0	MERGED:   12712938	TO_CACHE:    6665975

STLB Hit, L1D data hit: 0
STLB Hit, L2C data hit: 0
STLB Hit, LLC data hit: 0
STLB Hit, LLC data miss: 0
STLB STLB hints to L2: 0
L0D SPEC fills:   30690191  NON-SPEC fills:          0
L0D TimeGuard Request with older TS:    3864937 Restricted eviction:     705980 read:     213791
L0D Test counter :          0
L0D Leapfrog:          0
L0D MSHR merge:    2362935
L0D TOTAL     ACCESS:   50672029  HIT:   10917022  MISS:   39755007  HIT %:    21.5445  MISS %:    78.4555   MPKI: 198.775
L0D LOAD      TOTAL       ACCESS:   50672029  HIT:   10917022  MISS:   39755007  HIT %:    21.5445  MISS %:    78.4555   MPKI: 198.775
L0D LOAD      NON_SPEC    ACCESS:    8462767  HIT:     103931  MISS:    8358836  HIT %:     1.2281  MISS %:    98.7719   MPKI: 41.7942
L0D LOAD      SPEC        ACCESS:   42209262  HIT:   10813091  MISS:   31396171  HIT %:    25.6178  MISS %:    74.3822   MPKI: 156.981
L0D PREFETCH  REQUESTED:          0  ISSUED:          0  USEFUL:          0  USELESS:          0
L0D USEFUL LOAD PREFETCHES:          0 PREFETCH ISSUED TO LOWER LEVEL:          0  ACCURACY: -nan
L0D TIMELY PREFETCHES:          0 LATE PREFETCHES: 0 DROPPED PREFETCHES: 0
L0D COMMIT LATE PREFETCHES: 0 MISSED OPPORTUNITY: 0 LATE IN PQ: 0 UNCOVERED: 0
L0D COMMIT LATE MSHR PREFETCHES: 0
L0D MPKI TOTAL: 210.59 MSHR LATE: 0 PQ LATE: 0 COMMIT LATE: 0 MISSED OPPORTUNITY: 0 UNCOVERED: 0
L0D PREFETCHES SAME FILL-ORIGIN LEVEL: 0 DIFFERENT FILL-ORIGIN LEVEL: 0
L0D AVERAGE MISS LATENCY: 8.28548 cycles
L0D AVERAGE MISS LATENCY LOAD: 8.28548 cycles
L0D AVERAGE MISS LATENCY PREFETCH: -nan cycles
L0D AVERAGE MSHR OCCUPANCY: 1.31367
L0D MSHR FULL: 3.35624e-05
L0D RQ	ACCESS:   73913390	FORWARD:          0	MERGED:   20878429	TO_CACHE:   53034961
L0D WQ	ACCESS:   10719287	FORWARD:          0	MERGED:          0	TO_CACHE:   10719287

L1D SPEC fills:          0  NON-SPEC fills:      15539
L1D Test counter :     502693
L1D Leapfrog:          0
L1D MSHR merge:     368658
L1D TOTAL     ACCESS:   65193737  HIT:   59794130  MISS:    5399607  HIT %:    91.7176  MISS %:     8.2824   MPKI: 26.998
L1D LOAD      TOTAL       ACCESS:   39748558  HIT:   39167484  MISS:     581074  HIT %:    98.5381  MISS %:    1.46187   MPKI: 2.90537
L1D LOAD      NON_SPEC    ACCESS:    8358590  HIT:    8343051  MISS:      15539  HIT %:    99.8141  MISS %:   0.185905   MPKI: 0.077695
L1D LOAD      SPEC        ACCESS:   31389968  HIT:   30824433  MISS:     565535  HIT %:    98.1984  MISS %:    1.80164   MPKI: 2.82768
L1D RFO       NON_SPEC    ACCESS:    9935290  HIT:    9753306  MISS:     181984  HIT %:    98.1683  MISS %:    1.83169   MPKI: 0.90992
L1D PREFETCH  NON_SPEC    ACCESS:   13693062  HIT:    9535383  MISS:    4157679  HIT %:    69.6366  MISS %:    30.3634   MPKI: 20.7884
L1D COMMIT LOAD NON_SPEC    ACCESS:    1033080  HIT:    1021202  MISS:      11878  HIT %:    98.8502  MISS %:    1.14977   MPKI: 0.05939
L1D COMMIT WRITE NON_SPEC    ACCESS:     783747  HIT:     316755  MISS:     466992  HIT %:    40.4155  MISS %:    59.5845   MPKI: 2.33496
L1D PREFETCH  REQUESTED:   20053600  ISSUED:   19936899  USEFUL:    2886585  USELESS:    1270949
L1D USEFUL LOAD PREFETCHES:    2886585 PREFETCH ISSUED TO LOWER LEVEL:    5707930  ACCURACY: 50.5715
L1D TIMELY PREFETCHES:    2886585 LATE PREFETCHES: 362215 DROPPED PREFETCHES: 0
L1D COMMIT LATE PREFETCHES: 0 MISSED OPPORTUNITY: 0 LATE IN PQ: 0 UNCOVERED: 0
L1D COMMIT LATE MSHR PREFETCHES: 0
L1D MPKI TOTAL: 2.93761 MSHR LATE: 1.81107 PQ LATE: 0 COMMIT LATE: 0 MISSED OPPORTUNITY: 0 UNCOVERED: 0
L1D PREFETCHES SAME FILL-ORIGIN LEVEL: 4647208 DIFFERENT FILL-ORIGIN LEVEL: 1060722
L1D AVERAGE MISS LATENCY: 219.331 cycles
L1D AVERAGE MISS LATENCY LOAD: 213.966 cycles
L1D AVERAGE MISS LATENCY PREFETCH: 251.781 cycles
L1D AVERAGE MSHR OCCUPANCY: 5.40322
L1D MSHR FULL: 5.65652e-05
L1D RQ	ACCESS:   41521174	FORWARD:          0	MERGED:     710116	TO_CACHE:   40801686
L1D WQ	ACCESS:   11503228	FORWARD:       9372	MERGED:        197	TO_CACHE:   11503031
L1D PQ	ACCESS:   19936899	FORWARD:          0	MERGED:     663563	TO_CACHE:   19273336

L1D UNIQUE REGIONS ACCESSED: 0
L1D REGIONS CONFLICTS: 0
L1D Cross Page Prefetch Requests: 0
L1D Same Page Prefetch Requests: 24978588
L1D ROI Sum of L1D PQ occupancy: 298450268
L1D PREFETCHES PUSHED FROM L2C: 0
L1I SPEC fills:          0  NON-SPEC fills:          0
L1I Test counter :          0
L1I Leapfrog:          0
L1I MSHR merge:         30
L1I TOTAL     ACCESS:   33464877  HIT:   33464827  MISS:         50  HIT %:    99.9999  MISS %: 0.00014941   MPKI: 0.00025
L1I LOAD      TOTAL       ACCESS:   33464877  HIT:   33464827  MISS:         50  HIT %:    99.9999  MISS %: 0.00014941   MPKI: 0.00025
L1I LOAD      NON_SPEC    ACCESS:   33464877  HIT:   33464827  MISS:         50  HIT %:    99.9999  MISS %: 0.00014941   MPKI: 0.00025
L1I PREFETCH  REQUESTED:          0  ISSUED:          0  USEFUL:          0  USELESS:          0
L1I USEFUL LOAD PREFETCHES:          0 PREFETCH ISSUED TO LOWER LEVEL:          0  ACCURACY: -nan
L1I TIMELY PREFETCHES:          0 LATE PREFETCHES: 0 DROPPED PREFETCHES: 0
L1I COMMIT LATE PREFETCHES: 0 MISSED OPPORTUNITY: 0 LATE IN PQ: 0 UNCOVERED: 0
L1I COMMIT LATE MSHR PREFETCHES: 0
L1I MPKI TOTAL: 0.0004 MSHR LATE: 0 PQ LATE: 0 COMMIT LATE: 0 MISSED OPPORTUNITY: 0 UNCOVERED: 0
L1I PREFETCHES SAME FILL-ORIGIN LEVEL: 0 DIFFERENT FILL-ORIGIN LEVEL: 0
L1I AVERAGE MISS LATENCY: 250.4 cycles
L1I AVERAGE MISS LATENCY LOAD: 250.4 cycles
L1I AVERAGE MISS LATENCY PREFETCH: -nan cycles
L1I AVERAGE MSHR OCCUPANCY: 2.24115e-06
L1I MSHR FULL: 0
L1I RQ	ACCESS:   52616297	FORWARD:          0	MERGED:   19151390	TO_CACHE:   33464907

BTB SPEC fills:          0  NON-SPEC fills:          0
BTB Test counter :          0
BTB Leapfrog:          0
BTB MSHR merge:          0
BTB TOTAL     ACCESS:   10637216  HIT:   10637195  MISS:         21  HIT %:    99.9998  MISS %: 0.00019742   MPKI: 0.000105
BTB BRANCH_DIRECT_JUMP	ACCESS:      26624  HIT:      26622  MISS:          2
BTB BRANCH_INDIRECT	ACCESS:          0  HIT:          0  MISS:          0
BTB BRANCH_CONDITIONAL	ACCESS:   10610592  HIT:   10610573  MISS:         19
BTB BRANCH_DIRECT_CALL	ACCESS:          0  HIT:          0  MISS:          0
BTB BRANCH_INDIRECT_CALL	ACCESS:          0  HIT:          0  MISS:          0
BTB BRANCH_RETURN	ACCESS:          0  HIT:          0  MISS:          0
BTB BRANCH_OTHER ACCESS:          0  HIT:          0  MISS:          0

L2C SPEC fills:          0  NON-SPEC fills:       7329
L2C Test counter :     492471
L2C Leapfrog:          0
L2C MSHR merge:       8199
L2C TOTAL     ACCESS:    7715014  HIT:    3153763  MISS:    4561251  HIT %:    40.8783  MISS %:    59.1217   MPKI: 22.8063
L2C LOAD      TOTAL       ACCESS:     218689  HIT:      70328  MISS:     148361  HIT %:    32.1589  MISS %:    67.8411   MPKI: 0.741805
L2C LOAD      NON_SPEC    ACCESS:      12738  HIT:       5359  MISS:       7379  HIT %:     42.071  MISS %:     57.929   MPKI: 0.036895
L2C LOAD      SPEC        ACCESS:     205951  HIT:      64969  MISS:     140982  HIT %:    31.5459  MISS %:    68.4541   MPKI: 0.70491
L2C RFO       NON_SPEC    ACCESS:      54671  HIT:      12687  MISS:      41984  HIT %:    23.2061  MISS %:    76.7939   MPKI: 0.20992
L2C PREFETCH  NON_SPEC    ACCESS:    5096857  HIT:     869845  MISS:    4227012  HIT %:    17.0663  MISS %:    82.9337   MPKI: 21.1351
L2C WRITEBACK NON_SPEC    ACCESS:    1349335  HIT:    1349294  MISS:         41  HIT %:     99.997  MISS %: 0.00303853   MPKI: 0.000205
L2C CLEAN_EVICTION NON_SPEC    ACCESS:     502670  HIT:     384659  MISS:     118011  HIT %:    76.5232  MISS %:    23.4768   MPKI: 0.590055
L2C COMMIT LOAD NON_SPEC    ACCESS:      11873  HIT:       5680  MISS:       6193  HIT %:    47.8396  MISS %:    52.1604   MPKI: 0.030965
L2C LOAD TRANSLATION NON_SPEC    ACCESS:     480919  HIT:     461270  MISS:      19649  HIT %:    95.9143  MISS %:    4.08572   MPKI: 0.098245
L2C PREFETCH  REQUESTED:          0  ISSUED:          0  USEFUL:      40261  USELESS:    4187075
L2C USEFUL LOAD PREFETCHES:      40261 PREFETCH ISSUED TO LOWER LEVEL:    4240937  ACCURACY: 0.949342
L2C TIMELY PREFETCHES:      40261 LATE PREFETCHES: 13922 DROPPED PREFETCHES: 0
L2C COMMIT LATE PREFETCHES: 0 MISSED OPPORTUNITY: 0 LATE IN PQ: 0 UNCOVERED: 0
L2C COMMIT LATE MSHR PREFETCHES: 0
L2C MPKI TOTAL: 0.741805 MSHR LATE: 0.06961 PQ LATE: 0 COMMIT LATE: 0 MISSED OPPORTUNITY: 0 UNCOVERED: 0
L2C PREFETCHES SAME FILL-ORIGIN LEVEL: 689892 DIFFERENT FILL-ORIGIN LEVEL: 0
L2C AVERAGE MISS LATENCY: 306.95 cycles
L2C AVERAGE MISS LATENCY LOAD: 239.672 cycles
L2C AVERAGE MISS LATENCY PREFETCH: 318.569 cycles
L2C AVERAGE MSHR OCCUPANCY: 4.39858
L2C MSHR FULL: 0
L2C RQ	ACCESS:     766378	FORWARD:          0	MERGED:          0	TO_CACHE:     766152
L2C WQ	ACCESS:    1852029	FORWARD:        227	MERGED:         23	TO_CACHE:    1852006
L2C PQ	ACCESS:    5707930	FORWARD:          0	MERGED:          0	TO_CACHE:    5707929

L2C Instructions Evicting Data 50
L2C Translations Evicting Data 19598
L2C Data Evicting Data 4263375
L2C Instructions Evicting Instructions 0
L2C Translations Evicting Instructions 0
L2C Data Evicting Instructions 49
L2C Instructions Evicting Translations 0
L2C Translations Evicting Translations 51
L2C Data Evicting Translations 19094
L2C Dense regions hint from L2: 0
PSCL5 SPEC fills:          0  NON-SPEC fills:          0
PSCL5 Test counter :          0
PSCL5 Leapfrog:          0
PSCL5 MSHR merge:          0
PSCL5 TOTAL     ACCESS:          0  HIT:          0  MISS:          0  HIT %:       -nan  MISS %:       -nan   MPKI: 0
PSCL5 PREFETCH  REQUESTED:          0  ISSUED:          0  USEFUL:          0  USELESS:          0
PSCL5 USEFUL LOAD PREFETCHES:          0 PREFETCH ISSUED TO LOWER LEVEL:          0  ACCURACY: -nan
PSCL5 TIMELY PREFETCHES:          0 LATE PREFETCHES: 0 DROPPED PREFETCHES: 0
PSCL5 COMMIT LATE PREFETCHES: 0 MISSED OPPORTUNITY: 0 LATE IN PQ: 0 UNCOVERED: 0
PSCL5 COMMIT LATE MSHR PREFETCHES: 0
PSCL5 MPKI TOTAL: 0 MSHR LATE: 0 PQ LATE: 0 COMMIT LATE: 0 MISSED OPPORTUNITY: 0 UNCOVERED: 0
PSCL5 PREFETCHES SAME FILL-ORIGIN LEVEL: 0 DIFFERENT FILL-ORIGIN LEVEL: 0

PSCL4 SPEC fills:          0  NON-SPEC fills:          0
PSCL4 Test counter :          0
PSCL4 Leapfrog:          0
PSCL4 MSHR merge:          0
PSCL4 TOTAL     ACCESS:          0  HIT:          0  MISS:          0  HIT %:       -nan  MISS %:       -nan   MPKI: 0
PSCL4 PREFETCH  REQUESTED:          0  ISSUED:          0  USEFUL:          0  USELESS:          0
PSCL4 USEFUL LOAD PREFETCHES:          0 PREFETCH ISSUED TO LOWER LEVEL:          0  ACCURACY: -nan
PSCL4 TIMELY PREFETCHES:          0 LATE PREFETCHES: 0 DROPPED PREFETCHES: 0
PSCL4 COMMIT LATE PREFETCHES: 0 MISSED OPPORTUNITY: 0 LATE IN PQ: 0 UNCOVERED: 0
PSCL4 COMMIT LATE MSHR PREFETCHES: 0
PSCL4 MPKI TOTAL: 0 MSHR LATE: 0 PQ LATE: 0 COMMIT LATE: 0 MISSED OPPORTUNITY: 0 UNCOVERED: 0
PSCL4 PREFETCHES SAME FILL-ORIGIN LEVEL: 0 DIFFERENT FILL-ORIGIN LEVEL: 0

PSCL3 SPEC fills:          0  NON-SPEC fills:          0
PSCL3 Test counter :          0
PSCL3 Leapfrog:          0
PSCL3 MSHR merge:          0
PSCL3 TOTAL     ACCESS:          0  HIT:          0  MISS:          0  HIT %:       -nan  MISS %:       -nan   MPKI: 0
PSCL3 PREFETCH  REQUESTED:          0  ISSUED:          0  USEFUL:          0  USELESS:          0
PSCL3 USEFUL LOAD PREFETCHES:          0 PREFETCH ISSUED TO LOWER LEVEL:          0  ACCURACY: -nan
PSCL3 TIMELY PREFETCHES:          0 LATE PREFETCHES: 0 DROPPED PREFETCHES: 0
PSCL3 COMMIT LATE PREFETCHES: 0 MISSED OPPORTUNITY: 0 LATE IN PQ: 0 UNCOVERED: 0
PSCL3 COMMIT LATE MSHR PREFETCHES: 0
PSCL3 MPKI TOTAL: 0 MSHR LATE: 0 PQ LATE: 0 COMMIT LATE: 0 MISSED OPPORTUNITY: 0 UNCOVERED: 0
PSCL3 PREFETCHES SAME FILL-ORIGIN LEVEL: 0 DIFFERENT FILL-ORIGIN LEVEL: 0

PSCL2 SPEC fills:          0  NON-SPEC fills:          0
PSCL2 Test counter :          0
PSCL2 Leapfrog:          0
PSCL2 MSHR merge:          0
PSCL2 TOTAL     ACCESS:          0  HIT:          0  MISS:          0  HIT %:       -nan  MISS %:       -nan   MPKI: 0
PSCL2 PREFETCH  REQUESTED:          0  ISSUED:          0  USEFUL:          0  USELESS:          0
PSCL2 USEFUL LOAD PREFETCHES:          0 PREFETCH ISSUED TO LOWER LEVEL:          0  ACCURACY: -nan
PSCL2 TIMELY PREFETCHES:          0 LATE PREFETCHES: 0 DROPPED PREFETCHES: 0
PSCL2 COMMIT LATE PREFETCHES: 0 MISSED OPPORTUNITY: 0 LATE IN PQ: 0 UNCOVERED: 0
PSCL2 COMMIT LATE MSHR PREFETCHES: 0
PSCL2 MPKI TOTAL: 0 MSHR LATE: 0 PQ LATE: 0 COMMIT LATE: 0 MISSED OPPORTUNITY: 0 UNCOVERED: 0
PSCL2 PREFETCHES SAME FILL-ORIGIN LEVEL: 0 DIFFERENT FILL-ORIGIN LEVEL: 0

LLC SPEC fills:          0  NON-SPEC fills:       7308
LLC Test counter :     486205
LLC Leapfrog:          0
LLC MSHR merge:          0
LLC TOTAL     ACCESS:    6281024  HIT:    1731319  MISS:    4549705  HIT %:    27.5643  MISS %:    72.4357   MPKI: 22.7485
LLC LOAD      TOTAL       ACCESS:     140161  HIT:       1690  MISS:     138471  HIT %:    1.20576  MISS %:    98.7942   MPKI: 0.692355
LLC LOAD      NON_SPEC    ACCESS:       7369  HIT:         11  MISS:       7358  HIT %:   0.149274  MISS %:    99.8507   MPKI: 0.03679
LLC LOAD      SPEC        ACCESS:     132792  HIT:       1679  MISS:     131113  HIT %:    1.26438  MISS %:    98.7356   MPKI: 0.655565
LLC RFO       NON_SPEC    ACCESS:      36261  HIT:          0  MISS:      36261  HIT %:          0  MISS %:        100   MPKI: 0.181305
LLC PREFETCH  NON_SPEC    ACCESS:    4240934  HIT:       4890  MISS:    4236044  HIT %:   0.115305  MISS %:    99.8847   MPKI: 21.1802
LLC WRITEBACK NON_SPEC    ACCESS:    1345355  HIT:    1345320  MISS:         35  HIT %:    99.9974  MISS %: 0.00260154   MPKI: 0.000175
LLC CLEAN_EVICTION NON_SPEC    ACCESS:     492471  HIT:     379389  MISS:     113082  HIT %:    77.0378  MISS %:    22.9622   MPKI: 0.56541
LLC COMMIT LOAD NON_SPEC    ACCESS:       6193  HIT:         30  MISS:       6163  HIT %:   0.484418  MISS %:    99.5156   MPKI: 0.030815
LLC LOAD TRANSLATION NON_SPEC    ACCESS:      19649  HIT:          0  MISS:      19649  HIT %:          0  MISS %:        100   MPKI: 0.098245
LLC PREFETCH  REQUESTED:          0  ISSUED:          0  USEFUL:         89  USELESS:    4235943
LLC USEFUL LOAD PREFETCHES:         89 PREFETCH ISSUED TO LOWER LEVEL:    4236046  ACCURACY: 0.00210102
LLC TIMELY PREFETCHES:         89 LATE PREFETCHES: 0 DROPPED PREFETCHES: 0
LLC COMMIT LATE PREFETCHES: 0 MISSED OPPORTUNITY: 0 LATE IN PQ: 0 UNCOVERED: 0
LLC COMMIT LATE MSHR PREFETCHES: 0
LLC MPKI TOTAL: 0.692355 MSHR LATE: 0 PQ LATE: 0 COMMIT LATE: 0 MISSED OPPORTUNITY: 0 UNCOVERED: 0
LLC PREFETCHES SAME FILL-ORIGIN LEVEL: 0 DIFFERENT FILL-ORIGIN LEVEL: 0
LLC AVERAGE MISS LATENCY: 278.842 cycles
LLC AVERAGE MISS LATENCY LOAD: 213.113 cycles
LLC AVERAGE MISS LATENCY PREFETCH: 289.039 cycles
LLC AVERAGE MSHR OCCUPANCY: 3.31649
LLC MSHR FULL: 0
LLC RQ	ACCESS:     202265	FORWARD:          0	MERGED:          0	TO_CACHE:     202264
LLC WQ	ACCESS:    1837826	FORWARD:          1	MERGED:          0	TO_CACHE:    1837826
LLC PQ	ACCESS:    4240937	FORWARD:          0	MERGED:          0	TO_CACHE:    4240937

LLC Dense regions hint to LLC: 0

RAW hits: 17
Loads Generated: 73913408
Loads sent to L1D: 73913390
Stores Generated: 10719302
Stores sent to L1D: 10719287
Major fault: 0 Minor fault: 51871
Allocated PAGES: 51871
Total Load insts: 92757219
Total Non-spec loads: 8995907
Percentage of speculative loads: 90.3017

LeapFrogging counter: 329
Commit hits: 28505246 miss: 36903277
Commit hit %: 43.5803 miss %: 56.4197
Commits not translated: 0
Loads retired: 581072
Stores retired: 10719287
Cache fills: 581074
L1D response latency: 213.966 cycles
Load retirement latency: 311.018 cycles
OOO test counter: 0
Discarded buffer inserts: 28505246 hits: 12465 hit %: 0.0437288
Speculative prefetch buffer size: 0
CPU 0 L1D PC-based stride prefetcher final stats
Degree: 3

DRAM Statistics
 CHANNEL 0
 RQ ROW_BUFFER_HIT:     768878  ROW_BUFFER_MISS:    3667710
 DBUS_CONGESTED:       1242
 WQ ROW_BUFFER_HIT:     284017  ROW_BUFFER_MISS:    1539272  FULL:          0

 AVG_CONGESTED_CYCLE: 5
 All warmup complete: 2
Channel 0 Bank busy for read cycles: 0
Channel 0 Bank busy for write cycles: 0
Channel 0
Rank 0
0banks busy for read cycles: 188288
0banks busy for write cycles: 0
1banks busy for read cycles: 27683782
1banks busy for write cycles: 253852
2banks busy for read cycles: 55114394
2banks busy for write cycles: 263767
3banks busy for read cycles: 52084169
3banks busy for write cycles: 303606
4banks busy for read cycles: 30099624
4banks busy for write cycles: 399502
5banks busy for read cycles: 16088403
5banks busy for write cycles: 687249
6banks busy for read cycles: 10694162
6banks busy for write cycles: 1360748
7banks busy for read cycles: 5143435
7banks busy for write cycles: 4415810
8banks busy for read cycles: 2495865
8banks busy for write cycles: 37749668

CPU 0 Branch Prediction Accuracy: 99.8819% MPKI: 0.062825 Average ROB Occupancy at Mispredict: 224.94
Branch types
NOT_BRANCH: 189359655 94.6798%
BRANCH_DIRECT_JUMP: 26624 0.013312%
BRANCH_INDIRECT: 0 0%
BRANCH_CONDITIONAL: 10613695 5.30685%
BRANCH_DIRECT_CALL: 0 0%
BRANCH_INDIRECT_CALL: 0 0%
BRANCH_RETURN: 0 0%
BRANCH_OTHER: 0 0%

DRAM PAGES: 1048576
Allocated PAGES: 51871
