Initialize SIGNATURE TABLE
ST_SET: 1
ST_WAY: 256
ST_TAG_BIT: 16
ST_TAG_MASK: ffff

Initialize PATTERN TABLE
PT_SET: 512
PT_WAY: 4
SIG_DELTA_BIT: 7
C_SIG_BIT: 4
C_DELTA_BIT: 4

Initialize PREFETCH FILTER
FILTER_SET: 1024

Initialize PERCEPTRON
PERC_ENTRIES: 4096
PERC_FEATURES: 9

*** ChampSim Multicore Out-of-Order Simulator ***

Warmup Instructions: 50000000
Simulation Instructions: 200000000
Number of CPUs: 1
LLC sets: 2048
LLC ways: 16
L0D sets: 16
L0D ways: 2
ROB size: 352
LQ size: 128
SQ size: 72
Secure Berti: OFF
Berti: OFF
Berti Fill: OFF
On commit prefetching: ON
Hit-based filter: ON
Time-guarding: ON
Free-slotting: ON
Leap-frogging: ON
Train prefetcher on L0D bypass: OFF
No translation penalty for prefetchers: OFF
Prefetch to L0D only: OFF
Prefetch to L1D only: OFF
Clean evictions: ON
Commit loads: ON
Commit write: ON
Fill commit loads to L2C, LLC: ON
DRAM IO FREQUENCY: 6400
ROB SIZE: 352
Off-chip DRAM Size: 4096 MB Channels: 1 Width: 64-bit Data Rate: 6400 MT/s
CPU 0 runs /home/sumon/secure_berti/GhostMinion/../../traces/spec/602.gcc_s-1850B.champsimtrace.xz
.xz
BTB has LRU replacement policy
ITLB has LRU replacement policy
DTLB has LRU replacement policy
STLB has LRU replacement policy
L1I has LRU replacement policy
L0D has LRU replacement policy
L1D has LRU replacement policy
PERC_ENTRIES: 4096
L2C has LRU replacement policy
LLC has LRU replacement policy
Heartbeat CPU 0 instructions: 10000002 cycles: 5285924 heartbeat IPC: 1.89182 cumulative IPC: 1.89182 (Simulation time: 0 hr 0 min 39 sec) 
Heartbeat CPU 0 instructions: 20000000 cycles: 10571996 heartbeat IPC: 1.89176 cumulative IPC: 1.89179 (Simulation time: 0 hr 1 min 16 sec) 
Heartbeat CPU 0 instructions: 30000000 cycles: 15853695 heartbeat IPC: 1.89333 cumulative IPC: 1.8923 (Simulation time: 0 hr 1 min 54 sec) 
Heartbeat CPU 0 instructions: 40000000 cycles: 21136795 heartbeat IPC: 1.89283 cumulative IPC: 1.89243 (Simulation time: 0 hr 2 min 32 sec) 
Heartbeat CPU 0 instructions: 50000000 cycles: 26422371 heartbeat IPC: 1.89194 cumulative IPC: 1.89234 (Simulation time: 0 hr 3 min 11 sec) 

Warmup complete CPU 0 instructions: 50000004 cycles: 26422372 (Simulation time: 0 hr 3 min 11 sec) 

Heartbeat CPU 0 instructions: 60000003 cycles: 50457830 heartbeat IPC: 0.416052 cumulative IPC: 0.416052 (Simulation time: 0 hr 4 min 21 sec) 
Heartbeat CPU 0 instructions: 70000002 cycles: 74647202 heartbeat IPC: 0.413405 cumulative IPC: 0.414724 (Simulation time: 0 hr 5 min 34 sec) 
Heartbeat CPU 0 instructions: 80000003 cycles: 98815463 heartbeat IPC: 0.413766 cumulative IPC: 0.414404 (Simulation time: 0 hr 6 min 47 sec) 
Heartbeat CPU 0 instructions: 90000001 cycles: 123025531 heartbeat IPC: 0.413051 cumulative IPC: 0.414065 (Simulation time: 0 hr 8 min 1 sec) 
Heartbeat CPU 0 instructions: 100000002 cycles: 147200612 heartbeat IPC: 0.413649 cumulative IPC: 0.413982 (Simulation time: 0 hr 9 min 16 sec) 
Heartbeat CPU 0 instructions: 110000000 cycles: 171487174 heartbeat IPC: 0.41175 cumulative IPC: 0.413608 (Simulation time: 0 hr 10 min 32 sec) 
Heartbeat CPU 0 instructions: 120000003 cycles: 195813856 heartbeat IPC: 0.411071 cumulative IPC: 0.413244 (Simulation time: 0 hr 11 min 46 sec) 
Heartbeat CPU 0 instructions: 130000003 cycles: 220063702 heartbeat IPC: 0.412374 cumulative IPC: 0.413135 (Simulation time: 0 hr 13 min 1 sec) 
Heartbeat CPU 0 instructions: 140000000 cycles: 244225481 heartbeat IPC: 0.413877 cumulative IPC: 0.413217 (Simulation time: 0 hr 14 min 16 sec) 
Heartbeat CPU 0 instructions: 150000000 cycles: 268405817 heartbeat IPC: 0.413559 cumulative IPC: 0.413251 (Simulation time: 0 hr 15 min 27 sec) 
Heartbeat CPU 0 instructions: 160000000 cycles: 292681317 heartbeat IPC: 0.411938 cumulative IPC: 0.413132 (Simulation time: 0 hr 16 min 36 sec) 
Heartbeat CPU 0 instructions: 170000003 cycles: 316987277 heartbeat IPC: 0.411422 cumulative IPC: 0.412989 (Simulation time: 0 hr 17 min 41 sec) 
Heartbeat CPU 0 instructions: 180000000 cycles: 341192694 heartbeat IPC: 0.413131 cumulative IPC: 0.413 (Simulation time: 0 hr 18 min 37 sec) 
Heartbeat CPU 0 instructions: 190000003 cycles: 365559039 heartbeat IPC: 0.410402 cumulative IPC: 0.412813 (Simulation time: 0 hr 19 min 32 sec) 
Heartbeat CPU 0 instructions: 200000000 cycles: 389728210 heartbeat IPC: 0.41375 cumulative IPC: 0.412875 (Simulation time: 0 hr 20 min 27 sec) 
Heartbeat CPU 0 instructions: 210000002 cycles: 413963385 heartbeat IPC: 0.412623 cumulative IPC: 0.41286 (Simulation time: 0 hr 21 min 21 sec) 
Heartbeat CPU 0 instructions: 220000000 cycles: 438299863 heartbeat IPC: 0.410906 cumulative IPC: 0.412744 (Simulation time: 0 hr 22 min 16 sec) 
Heartbeat CPU 0 instructions: 230000003 cycles: 462540464 heartbeat IPC: 0.412531 cumulative IPC: 0.412732 (Simulation time: 0 hr 23 min 10 sec) 
Heartbeat CPU 0 instructions: 240000000 cycles: 486790021 heartbeat IPC: 0.412379 cumulative IPC: 0.412714 (Simulation time: 0 hr 24 min 4 sec) 
Heartbeat CPU 0 instructions: 250000000 cycles: 511092844 heartbeat IPC: 0.411475 cumulative IPC: 0.412652 (Simulation time: 0 hr 24 min 57 sec) 
Finished CPU 0 instructions: 200000000 cycles: 484670473 cumulative IPC: 0.412652 (Simulation time: 0 hr 24 min 57 sec) 
 Instruction ID: 250000378

ChampSim completed all CPUs

Region of Interest Statistics

CPU 0 cumulative IPC: 0.412652 instructions: 200000000 cycles: 484670473
ITLB SPEC fills:          0  NON-SPEC fills:          0
ITLB Test counter :          0
ITLB Leapfrog:          0
ITLB MSHR merge:          0
ITLB TOTAL     ACCESS:   44527928  HIT:   44527928  MISS:          0  HIT %:        100  MISS %:          0   MPKI: 0
ITLB LOAD TRANSLATION NON_SPEC    ACCESS:   44527928  HIT:   44527928  MISS:          0  HIT %:        100  MISS %:          0   MPKI: 0
ITLB PREFETCH  REQUESTED:          0  ISSUED:          0  USEFUL:          0  USELESS:          0
ITLB USEFUL LOAD PREFETCHES:          0 PREFETCH ISSUED TO LOWER LEVEL:          0  ACCURACY: -nan
ITLB TIMELY PREFETCHES:          0 LATE PREFETCHES: 0 DROPPED PREFETCHES: 0
ITLB COMMIT LATE PREFETCHES: 0 MISSED OPPORTUNITY: 0 LATE IN PQ: 0 UNCOVERED: 0
ITLB COMMIT LATE MSHR PREFETCHES: 0
ITLB MPKI TOTAL: 0 MSHR LATE: 0 PQ LATE: 0 COMMIT LATE: 0 MISSED OPPORTUNITY: 0 UNCOVERED: 0
ITLB PREFETCHES SAME FILL-ORIGIN LEVEL: 0 DIFFERENT FILL-ORIGIN LEVEL: 0
ITLB AVERAGE MISS LATENCY: -nan cycles
ITLB AVERAGE MISS LATENCY LOAD: -nan cycles
ITLB AVERAGE MISS LATENCY PREFETCH: -nan cycles
ITLB AVERAGE MSHR OCCUPANCY: 0
ITLB MSHR FULL: 0
ITLB RQ	ACCESS:   48252574	FORWARD:          0	MERGED:    3724646	TO_CACHE:   44527928

DTLB SPEC fills:          0  NON-SPEC fills:          0
DTLB Test counter :          0
DTLB Leapfrog:          0
DTLB MSHR merge:          0
DTLB TOTAL     ACCESS:   56611476  HIT:   56545329  MISS:      66147  HIT %:    99.8832  MISS %:   0.116844   MPKI: 0.330735
DTLB LOAD TRANSLATION NON_SPEC    ACCESS:   56611476  HIT:   56545329  MISS:      66147  HIT %:    99.8832  MISS %:   0.116844   MPKI: 0.330735
DTLB PREFETCH  REQUESTED:          0  ISSUED:          0  USEFUL:          0  USELESS:          0
DTLB USEFUL LOAD PREFETCHES:          0 PREFETCH ISSUED TO LOWER LEVEL:          0  ACCURACY: -nan
DTLB TIMELY PREFETCHES:          0 LATE PREFETCHES: 0 DROPPED PREFETCHES: 0
DTLB COMMIT LATE PREFETCHES: 0 MISSED OPPORTUNITY: 0 LATE IN PQ: 0 UNCOVERED: 0
DTLB COMMIT LATE MSHR PREFETCHES: 0
DTLB MPKI TOTAL: 0 MSHR LATE: 0 PQ LATE: 0 COMMIT LATE: 0 MISSED OPPORTUNITY: 0 UNCOVERED: 0
DTLB PREFETCHES SAME FILL-ORIGIN LEVEL: 0 DIFFERENT FILL-ORIGIN LEVEL: 0
DTLB AVERAGE MISS LATENCY: 184.07 cycles
DTLB AVERAGE MISS LATENCY LOAD: -nan cycles
DTLB AVERAGE MISS LATENCY PREFETCH: -nan cycles
DTLB AVERAGE MSHR OCCUPANCY: 0.00246683
DTLB MSHR FULL: 0
DTLB RQ	ACCESS:   59903416	FORWARD:          0	MERGED:    3289066	TO_CACHE:   56614350

STLB SPEC fills:          0  NON-SPEC fills:          0
STLB Test counter :          0
STLB Leapfrog:          0
STLB MSHR merge:          0
STLB TOTAL     ACCESS:      66147  HIT:       5077  MISS:      61070  HIT %:    7.67533  MISS %:    92.3247   MPKI: 0.30535
STLB LOAD TRANSLATION NON_SPEC    ACCESS:      66147  HIT:       5077  MISS:      61070  HIT %:    7.67533  MISS %:    92.3247   MPKI: 0.30535
STLB PREFETCH  REQUESTED:          0  ISSUED:          0  USEFUL:          0  USELESS:          0
STLB USEFUL LOAD PREFETCHES:          0 PREFETCH ISSUED TO LOWER LEVEL:          0  ACCURACY: -nan
STLB TIMELY PREFETCHES:          0 LATE PREFETCHES: 0 DROPPED PREFETCHES: 0
STLB COMMIT LATE PREFETCHES: 0 MISSED OPPORTUNITY: 0 LATE IN PQ: 0 UNCOVERED: 0
STLB COMMIT LATE MSHR PREFETCHES: 0
STLB MPKI TOTAL: 0 MSHR LATE: 0 PQ LATE: 0 COMMIT LATE: 0 MISSED OPPORTUNITY: 0 UNCOVERED: 0
STLB PREFETCHES SAME FILL-ORIGIN LEVEL: 0 DIFFERENT FILL-ORIGIN LEVEL: 0
STLB AVERAGE MISS LATENCY: 189.624 cycles
STLB AVERAGE MISS LATENCY LOAD: -nan cycles
STLB AVERAGE MISS LATENCY PREFETCH: -nan cycles
STLB AVERAGE MSHR OCCUPANCY: 0.00120943
STLB MSHR FULL: 0
STLB RQ	ACCESS:      66147	FORWARD:          0	MERGED:          0	TO_CACHE:      66147

STLB Hit, L1D data hit: 0
STLB Hit, L2C data hit: 0
STLB Hit, LLC data hit: 0
STLB Hit, LLC data miss: 0
STLB STLB hints to L2: 0
L0D SPEC fills:   18212232  NON-SPEC fills:          0
L0D TimeGuard Request with older TS:     208357 Restricted eviction:      19128 read:     846970
L0D Test counter :          0
L0D Leapfrog:          0
L0D MSHR merge:    2645481
L0D TOTAL     ACCESS:   37846924  HIT:    5537575  MISS:   32309349  HIT %:    14.6315  MISS %:    85.3685   MPKI: 161.547
L0D LOAD      TOTAL       ACCESS:   37846924  HIT:    5537575  MISS:   32309349  HIT %:    14.6315  MISS %:    85.3685   MPKI: 161.547
L0D LOAD      NON_SPEC    ACCESS:   14201845  HIT:     123856  MISS:   14077989  HIT %:   0.872112  MISS %:    99.1279   MPKI: 70.3899
L0D LOAD      SPEC        ACCESS:   23645079  HIT:    5413719  MISS:   18231360  HIT %:    22.8958  MISS %:    77.1042   MPKI: 91.1568
L0D PREFETCH  REQUESTED:          0  ISSUED:          0  USEFUL:          0  USELESS:          0
L0D USEFUL LOAD PREFETCHES:          0 PREFETCH ISSUED TO LOWER LEVEL:          0  ACCURACY: -nan
L0D TIMELY PREFETCHES:          0 LATE PREFETCHES: 0 DROPPED PREFETCHES: 0
L0D COMMIT LATE PREFETCHES: 0 MISSED OPPORTUNITY: 0 LATE IN PQ: 0 UNCOVERED: 0
L0D COMMIT LATE MSHR PREFETCHES: 0
L0D MPKI TOTAL: 174.774 MSHR LATE: 0 PQ LATE: 0 COMMIT LATE: 0 MISSED OPPORTUNITY: 0 UNCOVERED: 0
L0D PREFETCHES SAME FILL-ORIGIN LEVEL: 0 DIFFERENT FILL-ORIGIN LEVEL: 0
L0D AVERAGE MISS LATENCY: 9.22728 cycles
L0D AVERAGE MISS LATENCY LOAD: 9.22728 cycles
L0D AVERAGE MISS LATENCY PREFETCH: -nan cycles
L0D AVERAGE MSHR OCCUPANCY: 0.701656
L0D MSHR FULL: 0
L0D RQ	ACCESS:   55591136	FORWARD:          0	MERGED:   15098733	TO_CACHE:   40492403
L0D WQ	ACCESS:   19411013	FORWARD:          0	MERGED:          0	TO_CACHE:   19411013

L1D SPEC fills:          0  NON-SPEC fills:    1096280
L1D Test counter :          0
L1D Leapfrog:          0
L1D MSHR merge:       1603
L1D TOTAL     ACCESS:   61900481  HIT:   52791267  MISS:    9109214  HIT %:    85.2841  MISS %:    14.7159   MPKI: 45.5461
L1D LOAD      TOTAL       ACCESS:   32307746  HIT:   27167027  MISS:    5140719  HIT %:    84.0883  MISS %:    15.9117   MPKI: 25.7036
L1D LOAD      NON_SPEC    ACCESS:   14077878  HIT:   12981598  MISS:    1096280  HIT %:    92.2127  MISS %:    7.78725   MPKI: 5.4814
L1D LOAD      SPEC        ACCESS:   18229868  HIT:   14185429  MISS:    4044439  HIT %:    77.8142  MISS %:    22.1858   MPKI: 20.2222
L1D RFO       NON_SPEC    ACCESS:   19408717  HIT:   19407112  MISS:       1605  HIT %:    99.9917  MISS %: 0.00826948   MPKI: 0.008025
L1D COMMIT LOAD NON_SPEC    ACCESS:    4589304  HIT:    4581557  MISS:       7747  HIT %:    99.8312  MISS %:   0.168806   MPKI: 0.038735
L1D COMMIT WRITE NON_SPEC    ACCESS:    5594714  HIT:    1635571  MISS:    3959143  HIT %:    29.2342  MISS %:    70.7658   MPKI: 19.7957
L1D PREFETCH  REQUESTED:          0  ISSUED:          0  USEFUL:          0  USELESS:          0
L1D USEFUL LOAD PREFETCHES:          0 PREFETCH ISSUED TO LOWER LEVEL:          0  ACCURACY: -nan
L1D TIMELY PREFETCHES:          0 LATE PREFETCHES: 0 DROPPED PREFETCHES: 0
L1D COMMIT LATE PREFETCHES: 0 MISSED OPPORTUNITY: 0 LATE IN PQ: 0 UNCOVERED: 0
L1D COMMIT LATE MSHR PREFETCHES: 0
L1D MPKI TOTAL: 25.7116 MSHR LATE: 0 PQ LATE: 0 COMMIT LATE: 0 MISSED OPPORTUNITY: 0 UNCOVERED: 0
L1D PREFETCHES SAME FILL-ORIGIN LEVEL: 0 DIFFERENT FILL-ORIGIN LEVEL: 0
L1D AVERAGE MISS LATENCY: 14.9719 cycles
L1D AVERAGE MISS LATENCY LOAD: 26.4758 cycles
L1D AVERAGE MISS LATENCY PREFETCH: -nan cycles
L1D AVERAGE MSHR OCCUPANCY: 0.0722956
L1D MSHR FULL: 0
L1D RQ	ACCESS:   38848273	FORWARD:          0	MERGED:    1928898	TO_CACHE:   36899607
L1D WQ	ACCESS:   25014475	FORWARD:      19768	MERGED:      11032	TO_CACHE:   25003443

L1D UNIQUE REGIONS ACCESSED: 0
L1D REGIONS CONFLICTS: 0
L1D Cross Page Prefetch Requests: 0
L1D Same Page Prefetch Requests: 0
L1D ROI Sum of L1D PQ occupancy: 0
L1D PREFETCHES PUSHED FROM L2C: 0
L1I SPEC fills:          0  NON-SPEC fills:          0
L1I Test counter :          0
L1I Leapfrog:          0
L1I MSHR merge:          0
L1I TOTAL     ACCESS:   48252573  HIT:   48252573  MISS:          0  HIT %:        100  MISS %:          0   MPKI: 0
L1I LOAD      TOTAL       ACCESS:   48252573  HIT:   48252573  MISS:          0  HIT %:        100  MISS %:          0   MPKI: 0
L1I LOAD      NON_SPEC    ACCESS:   48252573  HIT:   48252573  MISS:          0  HIT %:        100  MISS %:          0   MPKI: 0
L1I PREFETCH  REQUESTED:          0  ISSUED:          0  USEFUL:          0  USELESS:          0
L1I USEFUL LOAD PREFETCHES:          0 PREFETCH ISSUED TO LOWER LEVEL:          0  ACCURACY: -nan
L1I TIMELY PREFETCHES:          0 LATE PREFETCHES: 0 DROPPED PREFETCHES: 0
L1I COMMIT LATE PREFETCHES: 0 MISSED OPPORTUNITY: 0 LATE IN PQ: 0 UNCOVERED: 0
L1I COMMIT LATE MSHR PREFETCHES: 0
L1I MPKI TOTAL: 0 MSHR LATE: 0 PQ LATE: 0 COMMIT LATE: 0 MISSED OPPORTUNITY: 0 UNCOVERED: 0
L1I PREFETCHES SAME FILL-ORIGIN LEVEL: 0 DIFFERENT FILL-ORIGIN LEVEL: 0
L1I AVERAGE MISS LATENCY: -nan cycles
L1I AVERAGE MISS LATENCY LOAD: -nan cycles
L1I AVERAGE MISS LATENCY PREFETCH: -nan cycles
L1I AVERAGE MSHR OCCUPANCY: 0
L1I MSHR FULL: 0
L1I RQ	ACCESS:   76260245	FORWARD:          0	MERGED:   28007671	TO_CACHE:   48252574

BTB SPEC fills:          0  NON-SPEC fills:          0
BTB Test counter :          0
BTB Leapfrog:          0
BTB MSHR merge:          0
BTB TOTAL     ACCESS:   32765954  HIT:   32765925  MISS:         29  HIT %:    99.9999  MISS %: 8.85065e-05   MPKI: 0.000145
BTB BRANCH_DIRECT_JUMP	ACCESS:    4318196  HIT:    4318187  MISS:          9
BTB BRANCH_INDIRECT	ACCESS:          0  HIT:          0  MISS:          0
BTB BRANCH_CONDITIONAL	ACCESS:   24127035  HIT:   24127021  MISS:         14
BTB BRANCH_DIRECT_CALL	ACCESS:    2160361  HIT:    2160358  MISS:          3
BTB BRANCH_INDIRECT_CALL	ACCESS:          0  HIT:          0  MISS:          0
BTB BRANCH_RETURN	ACCESS:    2160362  HIT:    2160359  MISS:          3
BTB BRANCH_OTHER ACCESS:          0  HIT:          0  MISS:          0

L2C SPEC fills:          0  NON-SPEC fills:     471314
L2C Test counter :          0
L2C Leapfrog:          0
L2C MSHR merge:     852558
L2C TOTAL     ACCESS:   12297085  HIT:    8177079  MISS:    4120006  HIT %:    66.4961  MISS %:    33.5039   MPKI: 20.6
L2C LOAD      TOTAL       ACCESS:    5140660  HIT:    4152035  MISS:     988625  HIT %:    80.7685  MISS %:    19.2315   MPKI: 4.94313
L2C LOAD      NON_SPEC    ACCESS:    1096279  HIT:     624965  MISS:     471314  HIT %:    57.0078  MISS %:    42.9922   MPKI: 2.35657
L2C LOAD      SPEC        ACCESS:    4044381  HIT:    3527070  MISS:     517311  HIT %:    87.2091  MISS %:    12.7909   MPKI: 2.58656
L2C RFO       NON_SPEC    ACCESS:       1603  HIT:       1084  MISS:        519  HIT %:    67.6232  MISS %:    32.3768   MPKI: 0.002595
L2C PREFETCH  NON_SPEC    ACCESS:    5194522  HIT:    2521446  MISS:    2673076  HIT %:    48.5405  MISS %:    51.4595   MPKI: 13.3654
L2C WRITEBACK NON_SPEC    ACCESS:       4686  HIT:       4686  MISS:          0  HIT %:        100  MISS %:          0   MPKI: 0
L2C CLEAN_EVICTION NON_SPEC    ACCESS:    1642923  HIT:    1197579  MISS:     445344  HIT %:    72.8932  MISS %:    27.1068   MPKI: 2.22672
L2C COMMIT LOAD NON_SPEC    ACCESS:       7747  HIT:       6761  MISS:        986  HIT %:    87.2725  MISS %:    12.7275   MPKI: 0.00493
L2C LOAD TRANSLATION NON_SPEC    ACCESS:     304944  HIT:     293488  MISS:      11456  HIT %:    96.2432  MISS %:    3.75676   MPKI: 0.05728
L2C PREFETCH  REQUESTED:    6382426  ISSUED:    6382426  USEFUL:    2570969  USELESS:     102133
L2C USEFUL LOAD PREFETCHES:    2570969 PREFETCH ISSUED TO LOWER LEVEL:    3529677  ACCURACY: 72.8386
L2C TIMELY PREFETCHES:    2570969 LATE PREFETCHES: 852618 DROPPED PREFETCHES: 0
L2C COMMIT LATE PREFETCHES: 0 MISSED OPPORTUNITY: 0 LATE IN PQ: 0 UNCOVERED: 0
L2C COMMIT LATE MSHR PREFETCHES: 0
L2C MPKI TOTAL: 4.94313 MSHR LATE: 4.26309 PQ LATE: 0 COMMIT LATE: 0 MISSED OPPORTUNITY: 0 UNCOVERED: 0
L2C PREFETCHES SAME FILL-ORIGIN LEVEL: 3525695 DIFFERENT FILL-ORIGIN LEVEL: 3982
L2C AVERAGE MISS LATENCY: 118.392 cycles
L2C AVERAGE MISS LATENCY LOAD: 84.6414 cycles
L2C AVERAGE MISS LATENCY PREFETCH: 150.317 cycles
L2C AVERAGE MSHR OCCUPANCY: 1.11211
L2C MSHR FULL: 0
L2C RQ	ACCESS:    5455015	FORWARD:          0	MERGED:          0	TO_CACHE:    5454954
L2C WQ	ACCESS:    1647609	FORWARD:         66	MERGED:          0	TO_CACHE:    1647609
L2C PQ	ACCESS:    6382426	FORWARD:          0	MERGED:     304859	TO_CACHE:    6077562

L2C Instructions Evicting Data 0
L2C Translations Evicting Data 11433
L2C Data Evicting Data 3135919
L2C Instructions Evicting Instructions 0
L2C Translations Evicting Instructions 0
L2C Data Evicting Instructions 0
L2C Instructions Evicting Translations 0
L2C Translations Evicting Translations 23
L2C Data Evicting Translations 9976
L2C Dense regions hint from L2: 0
PSCL5 SPEC fills:          0  NON-SPEC fills:          0
PSCL5 Test counter :          0
PSCL5 Leapfrog:          0
PSCL5 MSHR merge:          0
PSCL5 TOTAL     ACCESS:          0  HIT:          0  MISS:          0  HIT %:       -nan  MISS %:       -nan   MPKI: 0
PSCL5 PREFETCH  REQUESTED:          0  ISSUED:          0  USEFUL:          0  USELESS:          0
PSCL5 USEFUL LOAD PREFETCHES:          0 PREFETCH ISSUED TO LOWER LEVEL:          0  ACCURACY: -nan
PSCL5 TIMELY PREFETCHES:          0 LATE PREFETCHES: 0 DROPPED PREFETCHES: 0
PSCL5 COMMIT LATE PREFETCHES: 0 MISSED OPPORTUNITY: 0 LATE IN PQ: 0 UNCOVERED: 0
PSCL5 COMMIT LATE MSHR PREFETCHES: 0
PSCL5 MPKI TOTAL: 0 MSHR LATE: 0 PQ LATE: 0 COMMIT LATE: 0 MISSED OPPORTUNITY: 0 UNCOVERED: 0
PSCL5 PREFETCHES SAME FILL-ORIGIN LEVEL: 0 DIFFERENT FILL-ORIGIN LEVEL: 0

PSCL4 SPEC fills:          0  NON-SPEC fills:          0
PSCL4 Test counter :          0
PSCL4 Leapfrog:          0
PSCL4 MSHR merge:          0
PSCL4 TOTAL     ACCESS:          0  HIT:          0  MISS:          0  HIT %:       -nan  MISS %:       -nan   MPKI: 0
PSCL4 PREFETCH  REQUESTED:          0  ISSUED:          0  USEFUL:          0  USELESS:          0
PSCL4 USEFUL LOAD PREFETCHES:          0 PREFETCH ISSUED TO LOWER LEVEL:          0  ACCURACY: -nan
PSCL4 TIMELY PREFETCHES:          0 LATE PREFETCHES: 0 DROPPED PREFETCHES: 0
PSCL4 COMMIT LATE PREFETCHES: 0 MISSED OPPORTUNITY: 0 LATE IN PQ: 0 UNCOVERED: 0
PSCL4 COMMIT LATE MSHR PREFETCHES: 0
PSCL4 MPKI TOTAL: 0 MSHR LATE: 0 PQ LATE: 0 COMMIT LATE: 0 MISSED OPPORTUNITY: 0 UNCOVERED: 0
PSCL4 PREFETCHES SAME FILL-ORIGIN LEVEL: 0 DIFFERENT FILL-ORIGIN LEVEL: 0

PSCL3 SPEC fills:          0  NON-SPEC fills:          0
PSCL3 Test counter :          0
PSCL3 Leapfrog:          0
PSCL3 MSHR merge:          0
PSCL3 TOTAL     ACCESS:          0  HIT:          0  MISS:          0  HIT %:       -nan  MISS %:       -nan   MPKI: 0
PSCL3 PREFETCH  REQUESTED:          0  ISSUED:          0  USEFUL:          0  USELESS:          0
PSCL3 USEFUL LOAD PREFETCHES:          0 PREFETCH ISSUED TO LOWER LEVEL:          0  ACCURACY: -nan
PSCL3 TIMELY PREFETCHES:          0 LATE PREFETCHES: 0 DROPPED PREFETCHES: 0
PSCL3 COMMIT LATE PREFETCHES: 0 MISSED OPPORTUNITY: 0 LATE IN PQ: 0 UNCOVERED: 0
PSCL3 COMMIT LATE MSHR PREFETCHES: 0
PSCL3 MPKI TOTAL: 0 MSHR LATE: 0 PQ LATE: 0 COMMIT LATE: 0 MISSED OPPORTUNITY: 0 UNCOVERED: 0
PSCL3 PREFETCHES SAME FILL-ORIGIN LEVEL: 0 DIFFERENT FILL-ORIGIN LEVEL: 0

PSCL2 SPEC fills:          0  NON-SPEC fills:          0
PSCL2 Test counter :          0
PSCL2 Leapfrog:          0
PSCL2 MSHR merge:          0
PSCL2 TOTAL     ACCESS:          0  HIT:          0  MISS:          0  HIT %:       -nan  MISS %:       -nan   MPKI: 0
PSCL2 PREFETCH  REQUESTED:          0  ISSUED:          0  USEFUL:          0  USELESS:          0
PSCL2 USEFUL LOAD PREFETCHES:          0 PREFETCH ISSUED TO LOWER LEVEL:          0  ACCURACY: -nan
PSCL2 TIMELY PREFETCHES:          0 LATE PREFETCHES: 0 DROPPED PREFETCHES: 0
PSCL2 COMMIT LATE PREFETCHES: 0 MISSED OPPORTUNITY: 0 LATE IN PQ: 0 UNCOVERED: 0
PSCL2 COMMIT LATE MSHR PREFETCHES: 0
PSCL2 MPKI TOTAL: 0 MSHR LATE: 0 PQ LATE: 0 COMMIT LATE: 0 MISSED OPPORTUNITY: 0 UNCOVERED: 0
PSCL2 PREFETCHES SAME FILL-ORIGIN LEVEL: 0 DIFFERENT FILL-ORIGIN LEVEL: 0

LLC SPEC fills:          0  NON-SPEC fills:      40682
LLC Test counter :          0
LLC Leapfrog:          0
LLC MSHR merge:          1
LLC TOTAL     ACCESS:    5262766  HIT:    1574544  MISS:    3688222  HIT %:    29.9186  MISS %:    70.0814   MPKI: 18.4411
LLC LOAD      TOTAL       ACCESS:     136067  HIT:       5678  MISS:     130389  HIT %:    4.17294  MISS %:    95.8271   MPKI: 0.651945
LLC LOAD      NON_SPEC    ACCESS:      41905  HIT:       1223  MISS:      40682  HIT %:    2.91851  MISS %:    97.0815   MPKI: 0.20341
LLC LOAD      SPEC        ACCESS:      94162  HIT:       4455  MISS:      89707  HIT %:    4.73121  MISS %:    95.2688   MPKI: 0.448535
LLC RFO       NON_SPEC    ACCESS:        519  HIT:          7  MISS:        512  HIT %:    1.34875  MISS %:    98.6513   MPKI: 0.00256
LLC PREFETCH  NON_SPEC    ACCESS:    3529672  HIT:      10528  MISS:    3519144  HIT %:   0.298271  MISS %:    99.7017   MPKI: 17.5957
LLC WRITEBACK NON_SPEC    ACCESS:       1619  HIT:       1619  MISS:          0  HIT %:        100  MISS %:          0   MPKI: 0
LLC CLEAN_EVICTION NON_SPEC    ACCESS:    1582507  HIT:    1554842  MISS:      27665  HIT %:    98.2518  MISS %:    1.74818   MPKI: 0.138325
LLC COMMIT LOAD NON_SPEC    ACCESS:        926  HIT:        909  MISS:         17  HIT %:    98.1641  MISS %:    1.83585   MPKI: 8.5e-05
LLC LOAD TRANSLATION NON_SPEC    ACCESS:      11456  HIT:        961  MISS:      10495  HIT %:    8.38862  MISS %:    91.6114   MPKI: 0.052475
LLC PREFETCH  REQUESTED:          0  ISSUED:          0  USEFUL:       3770  USELESS:    3515515
LLC USEFUL LOAD PREFETCHES:       3770 PREFETCH ISSUED TO LOWER LEVEL:    3519147  ACCURACY: 0.107128
LLC TIMELY PREFETCHES:       3770 LATE PREFETCHES: 2 DROPPED PREFETCHES: 0
LLC COMMIT LATE PREFETCHES: 0 MISSED OPPORTUNITY: 0 LATE IN PQ: 0 UNCOVERED: 0
LLC COMMIT LATE MSHR PREFETCHES: 0
LLC MPKI TOTAL: 0.651945 MSHR LATE: 1e-05 PQ LATE: 0 COMMIT LATE: 0 MISSED OPPORTUNITY: 0 UNCOVERED: 0
LLC PREFETCHES SAME FILL-ORIGIN LEVEL: 2997 DIFFERENT FILL-ORIGIN LEVEL: 0
LLC AVERAGE MISS LATENCY: 126.264 cycles
LLC AVERAGE MISS LATENCY LOAD: 123.268 cycles
LLC AVERAGE MISS LATENCY PREFETCH: 127.224 cycles
LLC AVERAGE MSHR OCCUPANCY: 0.419493
LLC MSHR FULL: 0
LLC RQ	ACCESS:     148968	FORWARD:          0	MERGED:          0	TO_CACHE:     148968
LLC WQ	ACCESS:    1584126	FORWARD:          0	MERGED:          0	TO_CACHE:    1584126
LLC PQ	ACCESS:    3529677	FORWARD:          0	MERGED:          0	TO_CACHE:    3529677

LLC Dense regions hint to LLC: 0

RAW hits: 4971
Loads Generated: 55596107
Loads sent to L1D: 55591136
Stores Generated: 19411013
Stores sent to L1D: 19411013
Major fault: 0 Minor fault: 76297
Allocated PAGES: 76297
Total Load insts: 69474438
Total Non-spec loads: 16823870
Percentage of speculative loads: 75.7841

LeapFrogging counter: 0
Commit hits: 18120855 miss: 23245768
Commit hit %: 43.8055 miss %: 56.1945
Commits not translated: 0
Loads retired: 5140719
Stores retired: 19411013
Cache fills: 5140719
L1D response latency: 26.4758 cycles
Load retirement latency: 57.8727 cycles
OOO test counter: 0
Discarded buffer inserts: 18120855 hits: 24656 hit %: 0.136064
Filter prediction accuracy: 97.6568
------------------
Depth Distribution
------------------
depth 0: 48221083
depth 1: 68897
depth 2: 67796
depth 3: 255505
depth 4: 867704
depth 5: 752961
depth 6: 1851459
depth 7: 6292737
depth 8: 6678444
depth 9: 3861229
depth 10: 548372
depth 11: 25399
depth 12: 1145
depth 13: 75
depth 14: 4
depth 15: 0
depth 16: 0
depth 17: 0
depth 18: 0
depth 19: 0
depth 20: 0
depth 21: 0
depth 22: 0
depth 23: 0
depth 24: 0
depth 25: 0
depth 26: 0
depth 27: 0
depth 28: 0
depth 29: 0
Total: 69492810
------------------
ST read accesses: 55535035
ST write accesses: 61073
PT read accesses: 873559169
PT write accesses: 25498972
FILTER read accesses: 236096438
FILTER write accesses: 18610494
GHR read accesses: 20840510
GHR write accesses: 3523591
PERC read accesses: 6515722656
PERC write accesses: 51859503
GHR counter read accesses: 111192216
GHR counter write accesses: 67221690
GHR ip read accesses: 186006117
GHR ip write accesses: 222384432
ST tag read accesses: 18501119871
ST tag write accesses: 112255454

DRAM Statistics
 CHANNEL 0
 RQ ROW_BUFFER_HIT:    1562991  ROW_BUFFER_MISS:    2097566
 DBUS_CONGESTED:      28662
 WQ ROW_BUFFER_HIT:     466867  ROW_BUFFER_MISS:    1108751  FULL:          0

 AVG_CONGESTED_CYCLE: 3
 All warmup complete: 2
Channel 0 Bank busy for read cycles: 0
Channel 0 Bank busy for write cycles: 0
Channel 0
Rank 0
0banks busy for read cycles: 81845263
0banks busy for write cycles: 354392
1banks busy for read cycles: 179287022
1banks busy for write cycles: 48278724
2banks busy for read cycles: 65547385
2banks busy for write cycles: 27081177
3banks busy for read cycles: 22978503
3banks busy for write cycles: 18132163
4banks busy for read cycles: 2652891
4banks busy for write cycles: 12951391
5banks busy for read cycles: 532407
5banks busy for write cycles: 9455381
6banks busy for read cycles: 37764
6banks busy for write cycles: 6993298
7banks busy for read cycles: 8689
7banks busy for write cycles: 5045653
8banks busy for read cycles: 2204
8banks busy for write cycles: 3486167

CPU 0 Branch Prediction Accuracy: 99.9621% MPKI: 0.097185 Average ROB Occupancy at Mispredict: 311.334
Branch types
NOT_BRANCH: 148719231 74.3596%
BRANCH_DIRECT_JUMP: 4318196 2.1591%
BRANCH_INDIRECT: 0 0%
BRANCH_CONDITIONAL: 42641844 21.3209%
BRANCH_DIRECT_CALL: 2160361 1.08018%
BRANCH_INDIRECT_CALL: 0 0%
BRANCH_RETURN: 2160362 1.08018%
BRANCH_OTHER: 0 0%

DRAM PAGES: 1048576
Allocated PAGES: 76297
