Initialize SIGNATURE TABLE
ST_SET: 1
ST_WAY: 256
ST_TAG_BIT: 16
ST_TAG_MASK: ffff

Initialize PATTERN TABLE
PT_SET: 512
PT_WAY: 4
SIG_DELTA_BIT: 7
C_SIG_BIT: 4
C_DELTA_BIT: 4

Initialize PREFETCH FILTER
FILTER_SET: 1024

Initialize PERCEPTRON
PERC_ENTRIES: 4096
PERC_FEATURES: 9

*** ChampSim Multicore Out-of-Order Simulator ***

Warmup Instructions: 50000000
Simulation Instructions: 200000000
Number of CPUs: 1
LLC sets: 2048
LLC ways: 16
L0D sets: 16
L0D ways: 2
ROB size: 352
LQ size: 128
SQ size: 72
Secure Berti: OFF
Berti: OFF
Berti Fill: OFF
On commit prefetching: ON
Hit-based filter: ON
Time-guarding: ON
Free-slotting: ON
Leap-frogging: ON
Train prefetcher on L0D bypass: OFF
No translation penalty for prefetchers: OFF
Prefetch to L0D only: OFF
Prefetch to L1D only: OFF
Clean evictions: ON
Commit loads: ON
Commit write: ON
Fill commit loads to L2C, LLC: ON
DRAM IO FREQUENCY: 6400
ROB SIZE: 352
Off-chip DRAM Size: 4096 MB Channels: 1 Width: 64-bit Data Rate: 6400 MT/s
CPU 0 runs /home/sumon/secure_berti/GhostMinion/../../traces/spec/603.bwaves_s-1740B.champsimtrace.xz
.xz
BTB has LRU replacement policy
ITLB has LRU replacement policy
DTLB has LRU replacement policy
STLB has LRU replacement policy
L1I has LRU replacement policy
L0D has LRU replacement policy
L1D has LRU replacement policy
PERC_ENTRIES: 4096
L2C has LRU replacement policy
LLC has LRU replacement policy
Heartbeat CPU 0 instructions: 10000000 cycles: 3598576 heartbeat IPC: 2.77888 cumulative IPC: 2.77888 (Simulation time: 0 hr 0 min 41 sec) 
Heartbeat CPU 0 instructions: 20000002 cycles: 7194860 heartbeat IPC: 2.78065 cumulative IPC: 2.77976 (Simulation time: 0 hr 1 min 22 sec) 
Heartbeat CPU 0 instructions: 30000000 cycles: 10791644 heartbeat IPC: 2.78026 cumulative IPC: 2.77993 (Simulation time: 0 hr 2 min 2 sec) 
Heartbeat CPU 0 instructions: 40000001 cycles: 14387338 heartbeat IPC: 2.7811 cumulative IPC: 2.78022 (Simulation time: 0 hr 2 min 43 sec) 
Heartbeat CPU 0 instructions: 50000003 cycles: 17984160 heartbeat IPC: 2.78023 cumulative IPC: 2.78022 (Simulation time: 0 hr 3 min 26 sec) 

Warmup complete CPU 0 instructions: 50000003 cycles: 17984160 (Simulation time: 0 hr 3 min 26 sec) 

Heartbeat CPU 0 instructions: 60000003 cycles: 28434814 heartbeat IPC: 0.956878 cumulative IPC: 0.956878 (Simulation time: 0 hr 4 min 16 sec) 
Heartbeat CPU 0 instructions: 70000002 cycles: 38858029 heartbeat IPC: 0.959397 cumulative IPC: 0.958136 (Simulation time: 0 hr 5 min 8 sec) 
Heartbeat CPU 0 instructions: 80000001 cycles: 49337270 heartbeat IPC: 0.954268 cumulative IPC: 0.956843 (Simulation time: 0 hr 5 min 59 sec) 
Heartbeat CPU 0 instructions: 90000000 cycles: 59798760 heartbeat IPC: 0.955887 cumulative IPC: 0.956604 (Simulation time: 0 hr 6 min 52 sec) 
Heartbeat CPU 0 instructions: 100000002 cycles: 70240385 heartbeat IPC: 0.957706 cumulative IPC: 0.956824 (Simulation time: 0 hr 7 min 44 sec) 
Heartbeat CPU 0 instructions: 110000000 cycles: 80718653 heartbeat IPC: 0.954356 cumulative IPC: 0.956412 (Simulation time: 0 hr 8 min 37 sec) 
Heartbeat CPU 0 instructions: 120000002 cycles: 91242322 heartbeat IPC: 0.950239 cumulative IPC: 0.955525 (Simulation time: 0 hr 9 min 30 sec) 
Heartbeat CPU 0 instructions: 130000000 cycles: 101717853 heartbeat IPC: 0.954605 cumulative IPC: 0.95541 (Simulation time: 0 hr 10 min 22 sec) 
Heartbeat CPU 0 instructions: 140000003 cycles: 112264073 heartbeat IPC: 0.948207 cumulative IPC: 0.954604 (Simulation time: 0 hr 11 min 16 sec) 
Heartbeat CPU 0 instructions: 150000002 cycles: 122784510 heartbeat IPC: 0.950531 cumulative IPC: 0.954195 (Simulation time: 0 hr 12 min 9 sec) 
Heartbeat CPU 0 instructions: 160000001 cycles: 133286700 heartbeat IPC: 0.952182 cumulative IPC: 0.954012 (Simulation time: 0 hr 13 min 1 sec) 
Heartbeat CPU 0 instructions: 170000002 cycles: 143737775 heartbeat IPC: 0.956839 cumulative IPC: 0.954247 (Simulation time: 0 hr 13 min 54 sec) 
Heartbeat CPU 0 instructions: 180000003 cycles: 154258200 heartbeat IPC: 0.950532 cumulative IPC: 0.95396 (Simulation time: 0 hr 14 min 46 sec) 
Heartbeat CPU 0 instructions: 190000003 cycles: 164780432 heartbeat IPC: 0.950369 cumulative IPC: 0.953703 (Simulation time: 0 hr 15 min 35 sec) 
Heartbeat CPU 0 instructions: 200000001 cycles: 175217084 heartbeat IPC: 0.958161 cumulative IPC: 0.953999 (Simulation time: 0 hr 16 min 24 sec) 
Heartbeat CPU 0 instructions: 210000003 cycles: 185645951 heartbeat IPC: 0.958877 cumulative IPC: 0.954302 (Simulation time: 0 hr 17 min 10 sec) 
Heartbeat CPU 0 instructions: 220000000 cycles: 196103307 heartbeat IPC: 0.956264 cumulative IPC: 0.954417 (Simulation time: 0 hr 17 min 55 sec) 
Heartbeat CPU 0 instructions: 230000000 cycles: 206533309 heartbeat IPC: 0.958773 cumulative IPC: 0.954658 (Simulation time: 0 hr 18 min 37 sec) 
Heartbeat CPU 0 instructions: 240000000 cycles: 217004329 heartbeat IPC: 0.955017 cumulative IPC: 0.954677 (Simulation time: 0 hr 19 min 18 sec) 
Heartbeat CPU 0 instructions: 250000000 cycles: 227465019 heartbeat IPC: 0.95596 cumulative IPC: 0.954741 (Simulation time: 0 hr 19 min 58 sec) 
Finished CPU 0 instructions: 200000001 cycles: 209480860 cumulative IPC: 0.954741 (Simulation time: 0 hr 19 min 58 sec) 
 Instruction ID: 250000043

ChampSim completed all CPUs

Region of Interest Statistics

CPU 0 cumulative IPC: 0.954741 instructions: 200000001 cycles: 209480860
ITLB SPEC fills:          0  NON-SPEC fills:          0
ITLB Test counter :          0
ITLB Leapfrog:          0
ITLB MSHR merge:          0
ITLB TOTAL     ACCESS:   25671971  HIT:   25671971  MISS:          0  HIT %:        100  MISS %:          0   MPKI: 0
ITLB LOAD TRANSLATION NON_SPEC    ACCESS:   25671971  HIT:   25671971  MISS:          0  HIT %:        100  MISS %:          0   MPKI: 0
ITLB PREFETCH  REQUESTED:          0  ISSUED:          0  USEFUL:          0  USELESS:          0
ITLB USEFUL LOAD PREFETCHES:          0 PREFETCH ISSUED TO LOWER LEVEL:          0  ACCURACY: -nan
ITLB TIMELY PREFETCHES:          0 LATE PREFETCHES: 0 DROPPED PREFETCHES: 0
ITLB COMMIT LATE PREFETCHES: 0 MISSED OPPORTUNITY: 0 LATE IN PQ: 0 UNCOVERED: 0
ITLB COMMIT LATE MSHR PREFETCHES: 0
ITLB MPKI TOTAL: 0 MSHR LATE: 0 PQ LATE: 0 COMMIT LATE: 0 MISSED OPPORTUNITY: 0 UNCOVERED: 0
ITLB PREFETCHES SAME FILL-ORIGIN LEVEL: 0 DIFFERENT FILL-ORIGIN LEVEL: 0
ITLB AVERAGE MISS LATENCY: -nan cycles
ITLB AVERAGE MISS LATENCY LOAD: -nan cycles
ITLB AVERAGE MISS LATENCY PREFETCH: -nan cycles
ITLB AVERAGE MSHR OCCUPANCY: 0
ITLB MSHR FULL: 0
ITLB RQ	ACCESS:   34709047	FORWARD:          0	MERGED:    9037077	TO_CACHE:   25671970

DTLB SPEC fills:          0  NON-SPEC fills:          0
DTLB Test counter :          0
DTLB Leapfrog:          0
DTLB MSHR merge:          0
DTLB TOTAL     ACCESS:   69098395  HIT:   68744695  MISS:     353700  HIT %:    99.4881  MISS %:   0.511879   MPKI: 1.7685
DTLB LOAD TRANSLATION NON_SPEC    ACCESS:   69098395  HIT:   68744695  MISS:     353700  HIT %:    99.4881  MISS %:   0.511879   MPKI: 1.7685
DTLB PREFETCH  REQUESTED:          0  ISSUED:          0  USEFUL:          0  USELESS:          0
DTLB USEFUL LOAD PREFETCHES:          0 PREFETCH ISSUED TO LOWER LEVEL:          0  ACCURACY: -nan
DTLB TIMELY PREFETCHES:          0 LATE PREFETCHES: 0 DROPPED PREFETCHES: 0
DTLB COMMIT LATE PREFETCHES: 0 MISSED OPPORTUNITY: 0 LATE IN PQ: 0 UNCOVERED: 0
DTLB COMMIT LATE MSHR PREFETCHES: 0
DTLB MPKI TOTAL: 0 MSHR LATE: 0 PQ LATE: 0 COMMIT LATE: 0 MISSED OPPORTUNITY: 0 UNCOVERED: 0
DTLB PREFETCHES SAME FILL-ORIGIN LEVEL: 0 DIFFERENT FILL-ORIGIN LEVEL: 0
DTLB AVERAGE MISS LATENCY: 118.672 cycles
DTLB AVERAGE MISS LATENCY LOAD: -nan cycles
DTLB AVERAGE MISS LATENCY PREFETCH: -nan cycles
DTLB AVERAGE MSHR OCCUPANCY: 0.0370589
DTLB MSHR FULL: 2.23758e-05
DTLB RQ	ACCESS:   82523422	FORWARD:          0	MERGED:   13341516	TO_CACHE:   69181906

STLB SPEC fills:          0  NON-SPEC fills:          0
STLB Test counter :          0
STLB Leapfrog:          0
STLB MSHR merge:          0
STLB TOTAL     ACCESS:     353700  HIT:     294317  MISS:      59383  HIT %:    83.2109  MISS %:    16.7891   MPKI: 0.296915
STLB LOAD TRANSLATION NON_SPEC    ACCESS:     353700  HIT:     294317  MISS:      59383  HIT %:    83.2109  MISS %:    16.7891   MPKI: 0.296915
STLB PREFETCH  REQUESTED:          0  ISSUED:          0  USEFUL:          0  USELESS:          0
STLB USEFUL LOAD PREFETCHES:          0 PREFETCH ISSUED TO LOWER LEVEL:          0  ACCURACY: -nan
STLB TIMELY PREFETCHES:          0 LATE PREFETCHES: 0 DROPPED PREFETCHES: 0
STLB COMMIT LATE PREFETCHES: 0 MISSED OPPORTUNITY: 0 LATE IN PQ: 0 UNCOVERED: 0
STLB COMMIT LATE MSHR PREFETCHES: 0
STLB MPKI TOTAL: 0 MSHR LATE: 0 PQ LATE: 0 COMMIT LATE: 0 MISSED OPPORTUNITY: 0 UNCOVERED: 0
STLB PREFETCHES SAME FILL-ORIGIN LEVEL: 0 DIFFERENT FILL-ORIGIN LEVEL: 0
STLB AVERAGE MISS LATENCY: 652.744 cycles
STLB AVERAGE MISS LATENCY LOAD: -nan cycles
STLB AVERAGE MISS LATENCY PREFETCH: -nan cycles
STLB AVERAGE MSHR OCCUPANCY: 0.457308
STLB MSHR FULL: 0
STLB RQ	ACCESS:     353700	FORWARD:          0	MERGED:          0	TO_CACHE:     353700

STLB Hit, L1D data hit: 0
STLB Hit, L2C data hit: 0
STLB Hit, LLC data hit: 0
STLB Hit, LLC data miss: 0
STLB STLB hints to L2: 0
L0D SPEC fills:   42929343  NON-SPEC fills:          0
L0D TimeGuard Request with older TS:    2653010 Restricted eviction:   12164789 read:     207952
L0D Test counter :          0
L0D Leapfrog:          0
L0D MSHR merge:    2437204
L0D TOTAL     ACCESS:   68819396  HIT:    8836651  MISS:   59982745  HIT %:    12.8403  MISS %:    87.1597   MPKI: 299.914
L0D LOAD      TOTAL       ACCESS:   68819396  HIT:    8836651  MISS:   59982745  HIT %:    12.8403  MISS %:    87.1597   MPKI: 299.914
L0D LOAD      NON_SPEC    ACCESS:    5387154  HIT:     488280  MISS:    4898874  HIT %:    9.06378  MISS %:    90.9362   MPKI: 24.4944
L0D LOAD      SPEC        ACCESS:   63432242  HIT:    8348371  MISS:   55083871  HIT %:    13.1611  MISS %:    86.8389   MPKI: 275.419
L0D PREFETCH  REQUESTED:          0  ISSUED:          0  USEFUL:          0  USELESS:          0
L0D USEFUL LOAD PREFETCHES:          0 PREFETCH ISSUED TO LOWER LEVEL:          0  ACCURACY: -nan
L0D TIMELY PREFETCHES:          0 LATE PREFETCHES: 0 DROPPED PREFETCHES: 0
L0D COMMIT LATE PREFETCHES: 0 MISSED OPPORTUNITY: 0 LATE IN PQ: 0 UNCOVERED: 0
L0D COMMIT LATE MSHR PREFETCHES: 0
L0D MPKI TOTAL: 312.1 MSHR LATE: 0 PQ LATE: 0 COMMIT LATE: 0 MISSED OPPORTUNITY: 0 UNCOVERED: 0
L0D PREFETCHES SAME FILL-ORIGIN LEVEL: 0 DIFFERENT FILL-ORIGIN LEVEL: 0
L0D AVERAGE MISS LATENCY: 8.79842 cycles
L0D AVERAGE MISS LATENCY LOAD: 8.79842 cycles
L0D AVERAGE MISS LATENCY PREFETCH: -nan cycles
L0D AVERAGE MSHR OCCUPANCY: 2.92347
L0D MSHR FULL: 0.103543
L0D RQ	ACCESS:   85198055	FORWARD:          0	MERGED:   13941458	TO_CACHE:   71256597
L0D WQ	ACCESS:   11266825	FORWARD:          0	MERGED:          0	TO_CACHE:   11266825

L1D SPEC fills:          0  NON-SPEC fills:     134922
L1D Test counter :          0
L1D Leapfrog:          0
L1D MSHR merge:     213898
L1D TOTAL     ACCESS:   75315260  HIT:   67274254  MISS:    8041006  HIT %:    89.3235  MISS %:    10.6765   MPKI: 40.205
L1D LOAD      TOTAL       ACCESS:   59768848  HIT:   55596252  MISS:    4172596  HIT %:    93.0188  MISS %:    6.98122   MPKI: 20.863
L1D LOAD      NON_SPEC    ACCESS:    4898481  HIT:    4763559  MISS:     134922  HIT %:    97.2456  MISS %:    2.75436   MPKI: 0.67461
L1D LOAD      SPEC        ACCESS:   54870367  HIT:   50832693  MISS:    4037674  HIT %:    92.6414  MISS %:    7.35857   MPKI: 20.1884
L1D RFO       NON_SPEC    ACCESS:   11171652  HIT:   11074203  MISS:      97449  HIT %:    99.1277  MISS %:   0.872288   MPKI: 0.487245
L1D COMMIT LOAD NON_SPEC    ACCESS:    1636596  HIT:     389598  MISS:    1246998  HIT %:    23.8054  MISS %:    76.1946   MPKI: 6.23499
L1D COMMIT WRITE NON_SPEC    ACCESS:    2738164  HIT:     214201  MISS:    2523963  HIT %:     7.8228  MISS %:    92.1772   MPKI: 12.6198
L1D PREFETCH  REQUESTED:          0  ISSUED:          0  USEFUL:          0  USELESS:          0
L1D USEFUL LOAD PREFETCHES:          0 PREFETCH ISSUED TO LOWER LEVEL:          0  ACCURACY: -nan
L1D TIMELY PREFETCHES:          0 LATE PREFETCHES: 0 DROPPED PREFETCHES: 0
L1D COMMIT LATE PREFETCHES: 0 MISSED OPPORTUNITY: 0 LATE IN PQ: 0 UNCOVERED: 0
L1D COMMIT LATE MSHR PREFETCHES: 0
L1D MPKI TOTAL: 21.9325 MSHR LATE: 0 PQ LATE: 0 COMMIT LATE: 0 MISSED OPPORTUNITY: 0 UNCOVERED: 0
L1D PREFETCHES SAME FILL-ORIGIN LEVEL: 0 DIFFERENT FILL-ORIGIN LEVEL: 0
L1D AVERAGE MISS LATENCY: 31.0177 cycles
L1D AVERAGE MISS LATENCY LOAD: 47.082 cycles
L1D AVERAGE MISS LATENCY PREFETCH: -nan cycles
L1D AVERAGE MSHR OCCUPANCY: 0.713807
L1D MSHR FULL: 1.027e-05
L1D RQ	ACCESS:   61829860	FORWARD:          0	MERGED:         20	TO_CACHE:   61829840
L1D WQ	ACCESS:   14004989	FORWARD:          0	MERGED:        171	TO_CACHE:   14004818

L1D UNIQUE REGIONS ACCESSED: 0
L1D REGIONS CONFLICTS: 0
L1D Cross Page Prefetch Requests: 0
L1D Same Page Prefetch Requests: 0
L1D ROI Sum of L1D PQ occupancy: 0
L1D PREFETCHES PUSHED FROM L2C: 0
L1I SPEC fills:          0  NON-SPEC fills:          0
L1I Test counter :          0
L1I Leapfrog:          0
L1I MSHR merge:          0
L1I TOTAL     ACCESS:   34709046  HIT:   34709046  MISS:          0  HIT %:        100  MISS %:          0   MPKI: 0
L1I LOAD      TOTAL       ACCESS:   34709046  HIT:   34709046  MISS:          0  HIT %:        100  MISS %:          0   MPKI: 0
L1I LOAD      NON_SPEC    ACCESS:   34709046  HIT:   34709046  MISS:          0  HIT %:        100  MISS %:          0   MPKI: 0
L1I PREFETCH  REQUESTED:          0  ISSUED:          0  USEFUL:          0  USELESS:          0
L1I USEFUL LOAD PREFETCHES:          0 PREFETCH ISSUED TO LOWER LEVEL:          0  ACCURACY: -nan
L1I TIMELY PREFETCHES:          0 LATE PREFETCHES: 0 DROPPED PREFETCHES: 0
L1I COMMIT LATE PREFETCHES: 0 MISSED OPPORTUNITY: 0 LATE IN PQ: 0 UNCOVERED: 0
L1I COMMIT LATE MSHR PREFETCHES: 0
L1I MPKI TOTAL: 0 MSHR LATE: 0 PQ LATE: 0 COMMIT LATE: 0 MISSED OPPORTUNITY: 0 UNCOVERED: 0
L1I PREFETCHES SAME FILL-ORIGIN LEVEL: 0 DIFFERENT FILL-ORIGIN LEVEL: 0
L1I AVERAGE MISS LATENCY: -nan cycles
L1I AVERAGE MISS LATENCY LOAD: -nan cycles
L1I AVERAGE MISS LATENCY PREFETCH: -nan cycles
L1I AVERAGE MSHR OCCUPANCY: 0
L1I MSHR FULL: 0
L1I RQ	ACCESS:   46218538	FORWARD:          0	MERGED:   11509491	TO_CACHE:   34709047

BTB SPEC fills:          0  NON-SPEC fills:          0
BTB Test counter :          0
BTB Leapfrog:          0
BTB MSHR merge:          0
BTB TOTAL     ACCESS:    4834901  HIT:    4834896  MISS:          5  HIT %:    99.9999  MISS %: 0.000103415   MPKI: 2.5e-05
BTB BRANCH_DIRECT_JUMP	ACCESS:          0  HIT:          0  MISS:          0
BTB BRANCH_INDIRECT	ACCESS:          0  HIT:          0  MISS:          0
BTB BRANCH_CONDITIONAL	ACCESS:    4834901  HIT:    4834896  MISS:          5
BTB BRANCH_DIRECT_CALL	ACCESS:          0  HIT:          0  MISS:          0
BTB BRANCH_INDIRECT_CALL	ACCESS:          0  HIT:          0  MISS:          0
BTB BRANCH_RETURN	ACCESS:          0  HIT:          0  MISS:          0
BTB BRANCH_OTHER ACCESS:          0  HIT:          0  MISS:          0

L2C SPEC fills:          0  NON-SPEC fills:       5941
L2C Test counter :          0
L2C Leapfrog:          0
L2C MSHR merge:     626368
L2C TOTAL     ACCESS:   14302491  HIT:    9648200  MISS:    4654291  HIT %:    67.4582  MISS %:    32.5418   MPKI: 23.2715
L2C LOAD      TOTAL       ACCESS:    4172596  HIT:    3320544  MISS:     852052  HIT %:    79.5798  MISS %:    20.4202   MPKI: 4.26026
L2C LOAD      NON_SPEC    ACCESS:     134922  HIT:     128981  MISS:       5941  HIT %:    95.5967  MISS %:    4.40328   MPKI: 0.029705
L2C LOAD      SPEC        ACCESS:    4037674  HIT:    3191563  MISS:     846111  HIT %:    79.0446  MISS %:    20.9554   MPKI: 4.23055
L2C RFO       NON_SPEC    ACCESS:      97449  HIT:          0  MISS:      97449  HIT %:          0  MISS %:        100   MPKI: 0.487245
L2C PREFETCH  NON_SPEC    ACCESS:    7621873  HIT:    4614447  MISS:    3007426  HIT %:    60.5422  MISS %:    39.4578   MPKI: 15.0371
L2C WRITEBACK NON_SPEC    ACCESS:      97511  HIT:      97511  MISS:          0  HIT %:        100  MISS %:          0   MPKI: 0
L2C CLEAN_EVICTION NON_SPEC    ACCESS:     769260  HIT:     199486  MISS:     569774  HIT %:    25.9322  MISS %:    74.0678   MPKI: 2.84887
L2C COMMIT LOAD NON_SPEC    ACCESS:    1246998  HIT:    1126845  MISS:     120153  HIT %:    90.3646  MISS %:    9.63538   MPKI: 0.600765
L2C LOAD TRANSLATION NON_SPEC    ACCESS:     296804  HIT:     289367  MISS:       7437  HIT %:    97.4943  MISS %:    2.50569   MPKI: 0.037185
L2C PREFETCH  REQUESTED:    8858952  ISSUED:    8857962  USEFUL:    2864908  USELESS:     142493
L2C USEFUL LOAD PREFETCHES:    2864908 PREFETCH ISSUED TO LOWER LEVEL:    3649453  ACCURACY: 78.5024
L2C TIMELY PREFETCHES:    2864908 LATE PREFETCHES: 641865 DROPPED PREFETCHES: 0
L2C COMMIT LATE PREFETCHES: 0 MISSED OPPORTUNITY: 0 LATE IN PQ: 0 UNCOVERED: 0
L2C COMMIT LATE MSHR PREFETCHES: 0
L2C MPKI TOTAL: 4.26026 MSHR LATE: 3.20932 PQ LATE: 0 COMMIT LATE: 0 MISSED OPPORTUNITY: 0 UNCOVERED: 0
L2C PREFETCHES SAME FILL-ORIGIN LEVEL: 3649297 DIFFERENT FILL-ORIGIN LEVEL: 156
L2C AVERAGE MISS LATENCY: 208.279 cycles
L2C AVERAGE MISS LATENCY LOAD: 182.748 cycles
L2C AVERAGE MISS LATENCY PREFETCH: 259.141 cycles
L2C AVERAGE MSHR OCCUPANCY: 4.12393
L2C MSHR FULL: 6.53609e-06
L2C RQ	ACCESS:    5813847	FORWARD:          0	MERGED:          0	TO_CACHE:    5813847
L2C WQ	ACCESS:     866771	FORWARD:          0	MERGED:          0	TO_CACHE:     866771
L2C PQ	ACCESS:    8857962	FORWARD:          0	MERGED:     322620	TO_CACHE:    8535342

L2C Instructions Evicting Data 0
L2C Translations Evicting Data 7432
L2C Data Evicting Data 3224669
L2C Instructions Evicting Instructions 0
L2C Translations Evicting Instructions 0
L2C Data Evicting Instructions 0
L2C Instructions Evicting Translations 0
L2C Translations Evicting Translations 5
L2C Data Evicting Translations 6300
L2C Dense regions hint from L2: 0
PSCL5 SPEC fills:          0  NON-SPEC fills:          0
PSCL5 Test counter :          0
PSCL5 Leapfrog:          0
PSCL5 MSHR merge:          0
PSCL5 TOTAL     ACCESS:          0  HIT:          0  MISS:          0  HIT %:       -nan  MISS %:       -nan   MPKI: 0
PSCL5 PREFETCH  REQUESTED:          0  ISSUED:          0  USEFUL:          0  USELESS:          0
PSCL5 USEFUL LOAD PREFETCHES:          0 PREFETCH ISSUED TO LOWER LEVEL:          0  ACCURACY: -nan
PSCL5 TIMELY PREFETCHES:          0 LATE PREFETCHES: 0 DROPPED PREFETCHES: 0
PSCL5 COMMIT LATE PREFETCHES: 0 MISSED OPPORTUNITY: 0 LATE IN PQ: 0 UNCOVERED: 0
PSCL5 COMMIT LATE MSHR PREFETCHES: 0
PSCL5 MPKI TOTAL: 0 MSHR LATE: 0 PQ LATE: 0 COMMIT LATE: 0 MISSED OPPORTUNITY: 0 UNCOVERED: 0
PSCL5 PREFETCHES SAME FILL-ORIGIN LEVEL: 0 DIFFERENT FILL-ORIGIN LEVEL: 0

PSCL4 SPEC fills:          0  NON-SPEC fills:          0
PSCL4 Test counter :          0
PSCL4 Leapfrog:          0
PSCL4 MSHR merge:          0
PSCL4 TOTAL     ACCESS:          0  HIT:          0  MISS:          0  HIT %:       -nan  MISS %:       -nan   MPKI: 0
PSCL4 PREFETCH  REQUESTED:          0  ISSUED:          0  USEFUL:          0  USELESS:          0
PSCL4 USEFUL LOAD PREFETCHES:          0 PREFETCH ISSUED TO LOWER LEVEL:          0  ACCURACY: -nan
PSCL4 TIMELY PREFETCHES:          0 LATE PREFETCHES: 0 DROPPED PREFETCHES: 0
PSCL4 COMMIT LATE PREFETCHES: 0 MISSED OPPORTUNITY: 0 LATE IN PQ: 0 UNCOVERED: 0
PSCL4 COMMIT LATE MSHR PREFETCHES: 0
PSCL4 MPKI TOTAL: 0 MSHR LATE: 0 PQ LATE: 0 COMMIT LATE: 0 MISSED OPPORTUNITY: 0 UNCOVERED: 0
PSCL4 PREFETCHES SAME FILL-ORIGIN LEVEL: 0 DIFFERENT FILL-ORIGIN LEVEL: 0

PSCL3 SPEC fills:          0  NON-SPEC fills:          0
PSCL3 Test counter :          0
PSCL3 Leapfrog:          0
PSCL3 MSHR merge:          0
PSCL3 TOTAL     ACCESS:          0  HIT:          0  MISS:          0  HIT %:       -nan  MISS %:       -nan   MPKI: 0
PSCL3 PREFETCH  REQUESTED:          0  ISSUED:          0  USEFUL:          0  USELESS:          0
PSCL3 USEFUL LOAD PREFETCHES:          0 PREFETCH ISSUED TO LOWER LEVEL:          0  ACCURACY: -nan
PSCL3 TIMELY PREFETCHES:          0 LATE PREFETCHES: 0 DROPPED PREFETCHES: 0
PSCL3 COMMIT LATE PREFETCHES: 0 MISSED OPPORTUNITY: 0 LATE IN PQ: 0 UNCOVERED: 0
PSCL3 COMMIT LATE MSHR PREFETCHES: 0
PSCL3 MPKI TOTAL: 0 MSHR LATE: 0 PQ LATE: 0 COMMIT LATE: 0 MISSED OPPORTUNITY: 0 UNCOVERED: 0
PSCL3 PREFETCHES SAME FILL-ORIGIN LEVEL: 0 DIFFERENT FILL-ORIGIN LEVEL: 0

PSCL2 SPEC fills:          0  NON-SPEC fills:          0
PSCL2 Test counter :          0
PSCL2 Leapfrog:          0
PSCL2 MSHR merge:          0
PSCL2 TOTAL     ACCESS:          0  HIT:          0  MISS:          0  HIT %:       -nan  MISS %:       -nan   MPKI: 0
PSCL2 PREFETCH  REQUESTED:          0  ISSUED:          0  USEFUL:          0  USELESS:          0
PSCL2 USEFUL LOAD PREFETCHES:          0 PREFETCH ISSUED TO LOWER LEVEL:          0  ACCURACY: -nan
PSCL2 TIMELY PREFETCHES:          0 LATE PREFETCHES: 0 DROPPED PREFETCHES: 0
PSCL2 COMMIT LATE PREFETCHES: 0 MISSED OPPORTUNITY: 0 LATE IN PQ: 0 UNCOVERED: 0
PSCL2 COMMIT LATE MSHR PREFETCHES: 0
PSCL2 MPKI TOTAL: 0 MSHR LATE: 0 PQ LATE: 0 COMMIT LATE: 0 MISSED OPPORTUNITY: 0 UNCOVERED: 0
PSCL2 PREFETCHES SAME FILL-ORIGIN LEVEL: 0 DIFFERENT FILL-ORIGIN LEVEL: 0

LLC SPEC fills:          0  NON-SPEC fills:       2203
LLC Test counter :          0
LLC Leapfrog:          0
LLC MSHR merge:          1
LLC TOTAL     ACCESS:    4948634  HIT:     921007  MISS:    4027627  HIT %:    18.6113  MISS %:    81.3887   MPKI: 20.1381
LLC LOAD      TOTAL       ACCESS:     225684  HIT:       3918  MISS:     221766  HIT %:    1.73606  MISS %:    98.2639   MPKI: 1.10883
LLC LOAD      NON_SPEC    ACCESS:       2204  HIT:          1  MISS:       2203  HIT %:  0.0453721  MISS %:    99.9546   MPKI: 0.011015
LLC LOAD      SPEC        ACCESS:     223480  HIT:       3917  MISS:     219563  HIT %:    1.75273  MISS %:    98.2473   MPKI: 1.09781
LLC RFO       NON_SPEC    ACCESS:      97449  HIT:          0  MISS:      97449  HIT %:          0  MISS %:        100   MPKI: 0.487245
LLC PREFETCH  NON_SPEC    ACCESS:    3649436  HIT:      65521  MISS:    3583915  HIT %:    1.79537  MISS %:    98.2046   MPKI: 17.9196
LLC WRITEBACK NON_SPEC    ACCESS:      97456  HIT:      97448  MISS:          8  HIT %:    99.9918  MISS %: 0.00820883   MPKI: 4e-05
LLC CLEAN_EVICTION NON_SPEC    ACCESS:     766516  HIT:     679833  MISS:      86683  HIT %:    88.6913  MISS %:    11.3087   MPKI: 0.433415
LLC COMMIT LOAD NON_SPEC    ACCESS:     104656  HIT:      74287  MISS:      30369  HIT %:    70.9821  MISS %:    29.0179   MPKI: 0.151845
LLC LOAD TRANSLATION NON_SPEC    ACCESS:       7437  HIT:          0  MISS:       7437  HIT %:          0  MISS %:        100   MPKI: 0.037185
LLC PREFETCH  REQUESTED:          0  ISSUED:          0  USEFUL:      75195  USELESS:    3508739
LLC USEFUL LOAD PREFETCHES:      75195 PREFETCH ISSUED TO LOWER LEVEL:    3583922  ACCURACY: 2.09812
LLC TIMELY PREFETCHES:      75195 LATE PREFETCHES: 1 DROPPED PREFETCHES: 0
LLC COMMIT LATE PREFETCHES: 0 MISSED OPPORTUNITY: 0 LATE IN PQ: 0 UNCOVERED: 0
LLC COMMIT LATE MSHR PREFETCHES: 0
LLC MPKI TOTAL: 1.10883 MSHR LATE: 5e-06 PQ LATE: 0 COMMIT LATE: 0 MISSED OPPORTUNITY: 0 UNCOVERED: 0
LLC PREFETCHES SAME FILL-ORIGIN LEVEL: 25 DIFFERENT FILL-ORIGIN LEVEL: 0
LLC AVERAGE MISS LATENCY: 231.73 cycles
LLC AVERAGE MISS LATENCY LOAD: 196.221 cycles
LLC AVERAGE MISS LATENCY PREFETCH: 241.26 cycles
LLC AVERAGE MSHR OCCUPANCY: 5.1464
LLC MSHR FULL: 0
LLC RQ	ACCESS:     435226	FORWARD:          0	MERGED:          0	TO_CACHE:     435226
LLC WQ	ACCESS:     863972	FORWARD:          0	MERGED:          0	TO_CACHE:     863972
LLC PQ	ACCESS:    3649453	FORWARD:          0	MERGED:         10	TO_CACHE:    3649443

LLC Dense regions hint to LLC: 0

RAW hits: 762131
Loads Generated: 85960189
Loads sent to L1D: 85198055
Stores Generated: 11266814
Stores sent to L1D: 11266825
Major fault: 0 Minor fault: 70877
Allocated PAGES: 70877
Total Load insts: 105908959
Total Non-spec loads: 5941971
Percentage of speculative loads: 94.3895

LeapFrogging counter: 2982388
Commit hits: 40556618 miss: 39102619
Commit hit %: 50.9126 miss %: 49.0874
Commits not translated: 0
Loads retired: 4172596
Stores retired: 11266825
Cache fills: 4172596
L1D response latency: 47.082 cycles
Load retirement latency: 117.297 cycles
OOO test counter: 0
Discarded buffer inserts: 40556618 hits: 27360 hit %: 0.0674612
Filter prediction accuracy: 99.9423
------------------
Depth Distribution
------------------
depth 0: 48905042
depth 1: 16603
depth 2: 517653
depth 3: 3135609
depth 4: 27055624
depth 5: 23524446
depth 6: 4118947
depth 7: 172991
depth 8: 3206
depth 9: 151
depth 10: 15
depth 11: 0
depth 12: 0
depth 13: 0
depth 14: 0
depth 15: 0
depth 16: 0
depth 17: 0
depth 18: 0
depth 19: 0
depth 20: 0
depth 21: 0
depth 22: 0
depth 23: 0
depth 24: 0
depth 25: 0
depth 26: 0
depth 27: 0
depth 28: 0
depth 29: 0
Total: 107450287
------------------
ST read accesses: 85902429
ST write accesses: 57797
PT read accesses: 1302766126
PT write accesses: 70296535
FILTER read accesses: 414304415
FILTER write accesses: 21198361
GHR read accesses: 7253279
GHR write accesses: 1488594
PERC read accesses: 9216864504
PERC write accesses: 46635085
GHR counter read accesses: 171920452
GHR counter write accesses: 99699398
GHR ip read accesses: 284469846
GHR ip write accesses: 343840904
ST tag read accesses: 29156959982
ST tag write accesses: 727929322

DRAM Statistics
 CHANNEL 0
 RQ ROW_BUFFER_HIT:    2711061  ROW_BUFFER_MISS:    1229875
 DBUS_CONGESTED:       6188
 WQ ROW_BUFFER_HIT:     181503  ROW_BUFFER_MISS:     678193  FULL:          0

 AVG_CONGESTED_CYCLE: 4
 All warmup complete: 2
Channel 0 Bank busy for read cycles: 0
Channel 0 Bank busy for write cycles: 0
Channel 0
Rank 0
0banks busy for read cycles: 19383003
0banks busy for write cycles: 121743
1banks busy for read cycles: 46389188
1banks busy for write cycles: 12392275
2banks busy for read cycles: 50529299
2banks busy for write cycles: 10455452
3banks busy for read cycles: 27070547
3banks busy for write cycles: 8333489
4banks busy for read cycles: 11994345
4banks busy for write cycles: 5940713
5banks busy for read cycles: 4177655
5banks busy for write cycles: 3963766
6banks busy for read cycles: 2111053
6banks busy for write cycles: 2649408
7banks busy for read cycles: 1048873
7banks busy for write cycles: 1707427
8banks busy for read cycles: 320653
8banks busy for write cycles: 891972

CPU 0 Branch Prediction Accuracy: 99.9706% MPKI: 0.00733 Average ROB Occupancy at Mispredict: 36.6917
Branch types
NOT_BRANCH: 195007387 97.5037%
BRANCH_DIRECT_JUMP: 0 0%
BRANCH_INDIRECT: 0 0%
BRANCH_CONDITIONAL: 4992273 2.49614%
BRANCH_DIRECT_CALL: 0 0%
BRANCH_INDIRECT_CALL: 0 0%
BRANCH_RETURN: 0 0%
BRANCH_OTHER: 0 0%

DRAM PAGES: 1048576
Allocated PAGES: 70877
