Initialize SIGNATURE TABLE
ST_SET: 1
ST_WAY: 256
ST_TAG_BIT: 16
ST_TAG_MASK: ffff

Initialize PATTERN TABLE
PT_SET: 512
PT_WAY: 4
SIG_DELTA_BIT: 7
C_SIG_BIT: 4
C_DELTA_BIT: 4

Initialize PREFETCH FILTER
FILTER_SET: 1024

Initialize PERCEPTRON
PERC_ENTRIES: 4096
PERC_FEATURES: 9

*** ChampSim Multicore Out-of-Order Simulator ***

Warmup Instructions: 50000000
Simulation Instructions: 200000000
Number of CPUs: 1
LLC sets: 2048
LLC ways: 16
L0D sets: 16
L0D ways: 2
ROB size: 352
LQ size: 128
SQ size: 72
Secure Berti: OFF
Berti: OFF
Berti Fill: OFF
On commit prefetching: ON
Hit-based filter: ON
Time-guarding: ON
Free-slotting: ON
Leap-frogging: ON
Train prefetcher on L0D bypass: OFF
No translation penalty for prefetchers: OFF
Prefetch to L0D only: OFF
Prefetch to L1D only: OFF
Clean evictions: ON
Commit loads: ON
Commit write: ON
Fill commit loads to L2C, LLC: ON
DRAM IO FREQUENCY: 6400
ROB SIZE: 352
Off-chip DRAM Size: 4096 MB Channels: 1 Width: 64-bit Data Rate: 6400 MT/s
CPU 0 runs /home/sumon/secure_berti/GhostMinion/../../traces/spec/603.bwaves_s-2931B.champsimtrace.xz
.xz
BTB has LRU replacement policy
ITLB has LRU replacement policy
DTLB has LRU replacement policy
STLB has LRU replacement policy
L1I has LRU replacement policy
L0D has LRU replacement policy
L1D has LRU replacement policy
PERC_ENTRIES: 4096
L2C has LRU replacement policy
LLC has LRU replacement policy
Heartbeat CPU 0 instructions: 10000003 cycles: 3157422 heartbeat IPC: 3.16714 cumulative IPC: 3.16714 (Simulation time: 0 hr 0 min 36 sec) 
Heartbeat CPU 0 instructions: 20000003 cycles: 6314248 heartbeat IPC: 3.16774 cumulative IPC: 3.16744 (Simulation time: 0 hr 1 min 11 sec) 
Heartbeat CPU 0 instructions: 30000003 cycles: 9471316 heartbeat IPC: 3.1675 cumulative IPC: 3.16746 (Simulation time: 0 hr 1 min 48 sec) 
Heartbeat CPU 0 instructions: 40000002 cycles: 12628571 heartbeat IPC: 3.16731 cumulative IPC: 3.16742 (Simulation time: 0 hr 2 min 25 sec) 
Heartbeat CPU 0 instructions: 50000003 cycles: 15786077 heartbeat IPC: 3.16706 cumulative IPC: 3.16735 (Simulation time: 0 hr 3 min 2 sec) 

Warmup complete CPU 0 instructions: 50000003 cycles: 15786077 (Simulation time: 0 hr 3 min 2 sec) 

Heartbeat CPU 0 instructions: 60000002 cycles: 24134578 heartbeat IPC: 1.19782 cumulative IPC: 1.19782 (Simulation time: 0 hr 3 min 46 sec) 
Heartbeat CPU 0 instructions: 70000002 cycles: 32481130 heartbeat IPC: 1.1981 cumulative IPC: 1.19796 (Simulation time: 0 hr 4 min 29 sec) 
Heartbeat CPU 0 instructions: 80000003 cycles: 40833387 heartbeat IPC: 1.19728 cumulative IPC: 1.19773 (Simulation time: 0 hr 5 min 14 sec) 
Heartbeat CPU 0 instructions: 90000003 cycles: 49218968 heartbeat IPC: 1.19252 cumulative IPC: 1.19643 (Simulation time: 0 hr 5 min 58 sec) 
Heartbeat CPU 0 instructions: 100000002 cycles: 57604773 heartbeat IPC: 1.19249 cumulative IPC: 1.19564 (Simulation time: 0 hr 6 min 42 sec) 
Heartbeat CPU 0 instructions: 110000000 cycles: 65991817 heartbeat IPC: 1.19231 cumulative IPC: 1.19508 (Simulation time: 0 hr 7 min 28 sec) 
Heartbeat CPU 0 instructions: 120000000 cycles: 74362410 heartbeat IPC: 1.19466 cumulative IPC: 1.19502 (Simulation time: 0 hr 8 min 13 sec) 
Heartbeat CPU 0 instructions: 130000002 cycles: 82716031 heartbeat IPC: 1.19709 cumulative IPC: 1.19528 (Simulation time: 0 hr 8 min 59 sec) 
Heartbeat CPU 0 instructions: 140000002 cycles: 91063098 heartbeat IPC: 1.19803 cumulative IPC: 1.19558 (Simulation time: 0 hr 9 min 45 sec) 
Heartbeat CPU 0 instructions: 150000001 cycles: 99412238 heartbeat IPC: 1.19773 cumulative IPC: 1.1958 (Simulation time: 0 hr 10 min 32 sec) 
Heartbeat CPU 0 instructions: 160000001 cycles: 107760477 heartbeat IPC: 1.19786 cumulative IPC: 1.19598 (Simulation time: 0 hr 11 min 17 sec) 
Heartbeat CPU 0 instructions: 170000003 cycles: 116108928 heartbeat IPC: 1.19783 cumulative IPC: 1.19614 (Simulation time: 0 hr 12 min 3 sec) 
Heartbeat CPU 0 instructions: 180000000 cycles: 124463653 heartbeat IPC: 1.19693 cumulative IPC: 1.1962 (Simulation time: 0 hr 12 min 49 sec) 
Heartbeat CPU 0 instructions: 190000000 cycles: 132812088 heartbeat IPC: 1.19783 cumulative IPC: 1.19632 (Simulation time: 0 hr 13 min 35 sec) 
Heartbeat CPU 0 instructions: 200000000 cycles: 141160433 heartbeat IPC: 1.19784 cumulative IPC: 1.19642 (Simulation time: 0 hr 14 min 20 sec) 
Heartbeat CPU 0 instructions: 210000003 cycles: 149510729 heartbeat IPC: 1.19756 cumulative IPC: 1.19649 (Simulation time: 0 hr 15 min 4 sec) 
Heartbeat CPU 0 instructions: 220000000 cycles: 157860302 heartbeat IPC: 1.19767 cumulative IPC: 1.19656 (Simulation time: 0 hr 15 min 47 sec) 
Heartbeat CPU 0 instructions: 230000000 cycles: 166208014 heartbeat IPC: 1.19793 cumulative IPC: 1.19663 (Simulation time: 0 hr 16 min 29 sec) 
Heartbeat CPU 0 instructions: 240000000 cycles: 174553812 heartbeat IPC: 1.19821 cumulative IPC: 1.19672 (Simulation time: 0 hr 17 min 9 sec) 
Heartbeat CPU 0 instructions: 250000001 cycles: 182901771 heartbeat IPC: 1.1979 cumulative IPC: 1.19678 (Simulation time: 0 hr 17 min 49 sec) 
Finished CPU 0 instructions: 200000002 cycles: 167115695 cumulative IPC: 1.19678 (Simulation time: 0 hr 17 min 49 sec) 
 Instruction ID: 250000064

ChampSim completed all CPUs

Region of Interest Statistics

CPU 0 cumulative IPC: 1.19678 instructions: 200000002 cycles: 167115695
ITLB SPEC fills:          0  NON-SPEC fills:          0
ITLB Test counter :          0
ITLB Leapfrog:          0
ITLB MSHR merge:          0
ITLB TOTAL     ACCESS:   24088718  HIT:   24088718  MISS:          0  HIT %:        100  MISS %:          0   MPKI: 0
ITLB LOAD TRANSLATION NON_SPEC    ACCESS:   24088718  HIT:   24088718  MISS:          0  HIT %:        100  MISS %:          0   MPKI: 0
ITLB PREFETCH  REQUESTED:          0  ISSUED:          0  USEFUL:          0  USELESS:          0
ITLB USEFUL LOAD PREFETCHES:          0 PREFETCH ISSUED TO LOWER LEVEL:          0  ACCURACY: -nan
ITLB TIMELY PREFETCHES:          0 LATE PREFETCHES: 0 DROPPED PREFETCHES: 0
ITLB COMMIT LATE PREFETCHES: 0 MISSED OPPORTUNITY: 0 LATE IN PQ: 0 UNCOVERED: 0
ITLB COMMIT LATE MSHR PREFETCHES: 0
ITLB MPKI TOTAL: 0 MSHR LATE: 0 PQ LATE: 0 COMMIT LATE: 0 MISSED OPPORTUNITY: 0 UNCOVERED: 0
ITLB PREFETCHES SAME FILL-ORIGIN LEVEL: 0 DIFFERENT FILL-ORIGIN LEVEL: 0
ITLB AVERAGE MISS LATENCY: -nan cycles
ITLB AVERAGE MISS LATENCY LOAD: -nan cycles
ITLB AVERAGE MISS LATENCY PREFETCH: -nan cycles
ITLB AVERAGE MSHR OCCUPANCY: 0
ITLB MSHR FULL: 0
ITLB RQ	ACCESS:   27852669	FORWARD:          0	MERGED:    3763951	TO_CACHE:   24088718

DTLB SPEC fills:          0  NON-SPEC fills:          0
DTLB Test counter :          0
DTLB Leapfrog:          0
DTLB MSHR merge:          0
DTLB TOTAL     ACCESS:   54037738  HIT:   53599282  MISS:     438456  HIT %:    99.1886  MISS %:   0.811389   MPKI: 2.19228
DTLB LOAD TRANSLATION NON_SPEC    ACCESS:   54037738  HIT:   53599282  MISS:     438456  HIT %:    99.1886  MISS %:   0.811389   MPKI: 2.19228
DTLB PREFETCH  REQUESTED:          0  ISSUED:          0  USEFUL:          0  USELESS:          0
DTLB USEFUL LOAD PREFETCHES:          0 PREFETCH ISSUED TO LOWER LEVEL:          0  ACCURACY: -nan
DTLB TIMELY PREFETCHES:          0 LATE PREFETCHES: 0 DROPPED PREFETCHES: 0
DTLB COMMIT LATE PREFETCHES: 0 MISSED OPPORTUNITY: 0 LATE IN PQ: 0 UNCOVERED: 0
DTLB COMMIT LATE MSHR PREFETCHES: 0
DTLB MPKI TOTAL: 0 MSHR LATE: 0 PQ LATE: 0 COMMIT LATE: 0 MISSED OPPORTUNITY: 0 UNCOVERED: 0
DTLB PREFETCHES SAME FILL-ORIGIN LEVEL: 0 DIFFERENT FILL-ORIGIN LEVEL: 0
DTLB AVERAGE MISS LATENCY: 56.1677 cycles
DTLB AVERAGE MISS LATENCY LOAD: -nan cycles
DTLB AVERAGE MISS LATENCY PREFETCH: -nan cycles
DTLB AVERAGE MSHR OCCUPANCY: 0.0673281
DTLB MSHR FULL: 2.4036e-07
DTLB RQ	ACCESS:   82320635	FORWARD:          0	MERGED:   28235038	TO_CACHE:   54085597

STLB SPEC fills:          0  NON-SPEC fills:          0
STLB Test counter :          0
STLB Leapfrog:          0
STLB MSHR merge:          0
STLB TOTAL     ACCESS:     438456  HIT:     395852  MISS:      42604  HIT %:    90.2832  MISS %:    9.71682   MPKI: 0.21302
STLB LOAD TRANSLATION NON_SPEC    ACCESS:     438456  HIT:     395852  MISS:      42604  HIT %:    90.2832  MISS %:    9.71682   MPKI: 0.21302
STLB PREFETCH  REQUESTED:          0  ISSUED:          0  USEFUL:          0  USELESS:          0
STLB USEFUL LOAD PREFETCHES:          0 PREFETCH ISSUED TO LOWER LEVEL:          0  ACCURACY: -nan
STLB TIMELY PREFETCHES:          0 LATE PREFETCHES: 0 DROPPED PREFETCHES: 0
STLB COMMIT LATE PREFETCHES: 0 MISSED OPPORTUNITY: 0 LATE IN PQ: 0 UNCOVERED: 0
STLB COMMIT LATE MSHR PREFETCHES: 0
STLB MPKI TOTAL: 0 MSHR LATE: 0 PQ LATE: 0 COMMIT LATE: 0 MISSED OPPORTUNITY: 0 UNCOVERED: 0
STLB PREFETCHES SAME FILL-ORIGIN LEVEL: 0 DIFFERENT FILL-ORIGIN LEVEL: 0
STLB AVERAGE MISS LATENCY: 483.974 cycles
STLB AVERAGE MISS LATENCY LOAD: -nan cycles
STLB AVERAGE MISS LATENCY PREFETCH: -nan cycles
STLB AVERAGE MSHR OCCUPANCY: 0.17818
STLB MSHR FULL: 0
STLB RQ	ACCESS:     438456	FORWARD:          0	MERGED:          0	TO_CACHE:     438456

STLB Hit, L1D data hit: 0
STLB Hit, L2C data hit: 0
STLB Hit, LLC data hit: 0
STLB Hit, LLC data miss: 0
STLB STLB hints to L2: 0
L0D SPEC fills:   29184805  NON-SPEC fills:          0
L0D TimeGuard Request with older TS:     197009 Restricted eviction:    1393917 read:     131016
L0D Test counter :          0
L0D Leapfrog:          0
L0D MSHR merge:    1333640
L0D TOTAL     ACCESS:   44337937  HIT:    9550003  MISS:   34787934  HIT %:    21.5391  MISS %:    78.4609   MPKI: 173.94
L0D LOAD      TOTAL       ACCESS:   44337937  HIT:    9550003  MISS:   34787934  HIT %:    21.5391  MISS %:    78.4609   MPKI: 173.94
L0D LOAD      NON_SPEC    ACCESS:    5111318  HIT:     902024  MISS:    4209294  HIT %:    17.6476  MISS %:    82.3524   MPKI: 21.0465
L0D LOAD      SPEC        ACCESS:   39226619  HIT:    8647979  MISS:   30578640  HIT %:    22.0462  MISS %:    77.9538   MPKI: 152.893
L0D PREFETCH  REQUESTED:          0  ISSUED:          0  USEFUL:          0  USELESS:          0
L0D USEFUL LOAD PREFETCHES:          0 PREFETCH ISSUED TO LOWER LEVEL:          0  ACCURACY: -nan
L0D TIMELY PREFETCHES:          0 LATE PREFETCHES: 0 DROPPED PREFETCHES: 0
L0D COMMIT LATE PREFETCHES: 0 MISSED OPPORTUNITY: 0 LATE IN PQ: 0 UNCOVERED: 0
L0D COMMIT LATE MSHR PREFETCHES: 0
L0D MPKI TOTAL: 180.608 MSHR LATE: 0 PQ LATE: 0 COMMIT LATE: 0 MISSED OPPORTUNITY: 0 UNCOVERED: 0
L0D PREFETCHES SAME FILL-ORIGIN LEVEL: 0 DIFFERENT FILL-ORIGIN LEVEL: 0
L0D AVERAGE MISS LATENCY: 6.06035 cycles
L0D AVERAGE MISS LATENCY LOAD: 6.06035 cycles
L0D AVERAGE MISS LATENCY PREFETCH: -nan cycles
L0D AVERAGE MSHR OCCUPANCY: 1.20041
L0D MSHR FULL: 3.45501e-05
L0D RQ	ACCESS:   57575530	FORWARD:          0	MERGED:   11903955	TO_CACHE:   45671575
L0D WQ	ACCESS:   36649060	FORWARD:          0	MERGED:          0	TO_CACHE:   36649060

L1D SPEC fills:          0  NON-SPEC fills:      28400
L1D Test counter :          0
L1D Leapfrog:          0
L1D MSHR merge:       2910
L1D TOTAL     ACCESS:   70348997  HIT:   64960667  MISS:    5388330  HIT %:    92.3406  MISS %:    7.65943   MPKI: 26.9416
L1D LOAD      TOTAL       ACCESS:   34785024  HIT:   32671680  MISS:    2113344  HIT %:    93.9246  MISS %:    6.07544   MPKI: 10.5667
L1D LOAD      NON_SPEC    ACCESS:    4209291  HIT:    4180891  MISS:      28400  HIT %:    99.3253  MISS %:   0.674698   MPKI: 0.142
L1D LOAD      SPEC        ACCESS:   30575733  HIT:   28490789  MISS:    2084944  HIT %:     93.181  MISS %:    6.81895   MPKI: 10.4247
L1D RFO       NON_SPEC    ACCESS:   33454531  HIT:   32263688  MISS:    1190843  HIT %:    96.4404  MISS %:    3.55959   MPKI: 5.95421
L1D COMMIT LOAD NON_SPEC    ACCESS:      68900  HIT:      23699  MISS:      45201  HIT %:    34.3962  MISS %:    65.6038   MPKI: 0.226005
L1D COMMIT WRITE NON_SPEC    ACCESS:    2040542  HIT:       1600  MISS:    2038942  HIT %:  0.0784105  MISS %:    99.9216   MPKI: 10.1947
L1D PREFETCH  REQUESTED:          0  ISSUED:          0  USEFUL:          0  USELESS:          0
L1D USEFUL LOAD PREFETCHES:          0 PREFETCH ISSUED TO LOWER LEVEL:          0  ACCURACY: -nan
L1D TIMELY PREFETCHES:          0 LATE PREFETCHES: 0 DROPPED PREFETCHES: 0
L1D COMMIT LATE PREFETCHES: 0 MISSED OPPORTUNITY: 0 LATE IN PQ: 0 UNCOVERED: 0
L1D COMMIT LATE MSHR PREFETCHES: 0
L1D MPKI TOTAL: 10.5813 MSHR LATE: 0 PQ LATE: 0 COMMIT LATE: 0 MISSED OPPORTUNITY: 0 UNCOVERED: 0
L1D PREFETCHES SAME FILL-ORIGIN LEVEL: 0 DIFFERENT FILL-ORIGIN LEVEL: 0
L1D AVERAGE MISS LATENCY: 84.792 cycles
L1D AVERAGE MISS LATENCY LOAD: 14.5751 cycles
L1D AVERAGE MISS LATENCY PREFETCH: -nan cycles
L1D AVERAGE MSHR OCCUPANCY: 2.79549
L1D MSHR FULL: 0
L1D RQ	ACCESS:   34883177	FORWARD:          0	MERGED:      26141	TO_CACHE:   34857036
L1D WQ	ACCESS:   38689609	FORWARD:          0	MERGED:       7342	TO_CACHE:   38682267

L1D UNIQUE REGIONS ACCESSED: 0
L1D REGIONS CONFLICTS: 0
L1D Cross Page Prefetch Requests: 0
L1D Same Page Prefetch Requests: 0
L1D ROI Sum of L1D PQ occupancy: 0
L1D PREFETCHES PUSHED FROM L2C: 0
L1I SPEC fills:          0  NON-SPEC fills:          0
L1I Test counter :          0
L1I Leapfrog:          0
L1I MSHR merge:          0
L1I TOTAL     ACCESS:   27852667  HIT:   27852667  MISS:          0  HIT %:        100  MISS %:          0   MPKI: 0
L1I LOAD      TOTAL       ACCESS:   27852667  HIT:   27852667  MISS:          0  HIT %:        100  MISS %:          0   MPKI: 0
L1I LOAD      NON_SPEC    ACCESS:   27852667  HIT:   27852667  MISS:          0  HIT %:        100  MISS %:          0   MPKI: 0
L1I PREFETCH  REQUESTED:          0  ISSUED:          0  USEFUL:          0  USELESS:          0
L1I USEFUL LOAD PREFETCHES:          0 PREFETCH ISSUED TO LOWER LEVEL:          0  ACCURACY: -nan
L1I TIMELY PREFETCHES:          0 LATE PREFETCHES: 0 DROPPED PREFETCHES: 0
L1I COMMIT LATE PREFETCHES: 0 MISSED OPPORTUNITY: 0 LATE IN PQ: 0 UNCOVERED: 0
L1I COMMIT LATE MSHR PREFETCHES: 0
L1I MPKI TOTAL: 0 MSHR LATE: 0 PQ LATE: 0 COMMIT LATE: 0 MISSED OPPORTUNITY: 0 UNCOVERED: 0
L1I PREFETCHES SAME FILL-ORIGIN LEVEL: 0 DIFFERENT FILL-ORIGIN LEVEL: 0
L1I AVERAGE MISS LATENCY: -nan cycles
L1I AVERAGE MISS LATENCY LOAD: -nan cycles
L1I AVERAGE MISS LATENCY PREFETCH: -nan cycles
L1I AVERAGE MSHR OCCUPANCY: 0
L1I MSHR FULL: 0
L1I RQ	ACCESS:   40694690	FORWARD:          0	MERGED:   12842021	TO_CACHE:   27852669

BTB SPEC fills:          0  NON-SPEC fills:          0
BTB Test counter :          0
BTB Leapfrog:          0
BTB MSHR merge:          0
BTB TOTAL     ACCESS:    1687994  HIT:    1687989  MISS:          5  HIT %:    99.9997  MISS %: 0.00029621   MPKI: 2.5e-05
BTB BRANCH_DIRECT_JUMP	ACCESS:          0  HIT:          0  MISS:          0
BTB BRANCH_INDIRECT	ACCESS:          0  HIT:          0  MISS:          0
BTB BRANCH_CONDITIONAL	ACCESS:    1687994  HIT:    1687989  MISS:          5
BTB BRANCH_DIRECT_CALL	ACCESS:          0  HIT:          0  MISS:          0
BTB BRANCH_INDIRECT_CALL	ACCESS:          0  HIT:          0  MISS:          0
BTB BRANCH_RETURN	ACCESS:          0  HIT:          0  MISS:          0
BTB BRANCH_OTHER ACCESS:          0  HIT:          0  MISS:          0

L2C SPEC fills:          0  NON-SPEC fills:        995
L2C Test counter :          0
L2C Leapfrog:          0
L2C MSHR merge:        370
L2C TOTAL     ACCESS:   11396991  HIT:    8432833  MISS:    2964158  HIT %:    73.9917  MISS %:    26.0083   MPKI: 14.8208
L2C LOAD      TOTAL       ACCESS:    2113088  HIT:    2068537  MISS:      44551  HIT %:    97.8917  MISS %:    2.10834   MPKI: 0.222755
L2C LOAD      NON_SPEC    ACCESS:      28398  HIT:      27403  MISS:        995  HIT %:    96.4962  MISS %:    3.50377   MPKI: 0.004975
L2C LOAD      SPEC        ACCESS:    2084690  HIT:    2041134  MISS:      43556  HIT %:    97.9107  MISS %:    2.08933   MPKI: 0.21778
L2C RFO       NON_SPEC    ACCESS:    1190820  HIT:         52  MISS:    1190768  HIT %: 0.00436674  MISS %:    99.9956   MPKI: 5.95384
L2C PREFETCH  NON_SPEC    ACCESS:    6592423  HIT:    4899220  MISS:    1693203  HIT %:    74.3159  MISS %:    25.6841   MPKI: 8.46601
L2C WRITEBACK NON_SPEC    ACCESS:    1191337  HIT:    1191337  MISS:          0  HIT %:        100  MISS %:          0   MPKI: 0
L2C CLEAN_EVICTION NON_SPEC    ACCESS:      51175  HIT:      20984  MISS:      30191  HIT %:    41.0044  MISS %:    58.9956   MPKI: 0.150955
L2C COMMIT LOAD NON_SPEC    ACCESS:      45201  HIT:      45120  MISS:         81  HIT %:    99.8208  MISS %:     0.1792   MPKI: 0.000405
L2C LOAD TRANSLATION NON_SPEC    ACCESS:     212947  HIT:     207583  MISS:       5364  HIT %:    97.4811  MISS %:    2.51894   MPKI: 0.02682
L2C PREFETCH  REQUESTED:    6709319  ISSUED:    6709254  USEFUL:    1679233  USELESS:      13957
L2C USEFUL LOAD PREFETCHES:    1679233 PREFETCH ISSUED TO LOWER LEVEL:    1714212  ACCURACY: 97.9595
L2C TIMELY PREFETCHES:    1679233 LATE PREFETCHES: 370 DROPPED PREFETCHES: 0
L2C COMMIT LATE PREFETCHES: 0 MISSED OPPORTUNITY: 0 LATE IN PQ: 0 UNCOVERED: 0
L2C COMMIT LATE MSHR PREFETCHES: 0
L2C MPKI TOTAL: 0.222755 MSHR LATE: 0.00185 PQ LATE: 0 COMMIT LATE: 0 MISSED OPPORTUNITY: 0 UNCOVERED: 0
L2C PREFETCHES SAME FILL-ORIGIN LEVEL: 1693574 DIFFERENT FILL-ORIGIN LEVEL: 20638
L2C AVERAGE MISS LATENCY: 261.792 cycles
L2C AVERAGE MISS LATENCY LOAD: 159.255 cycles
L2C AVERAGE MISS LATENCY PREFETCH: 212.72 cycles
L2C AVERAGE MSHR OCCUPANCY: 4.78887
L2C MSHR FULL: 1.40368e-06
L2C RQ	ACCESS:    3562337	FORWARD:          0	MERGED:          0	TO_CACHE:    3562058
L2C WQ	ACCESS:    1242512	FORWARD:        290	MERGED:          0	TO_CACHE:    1242512
L2C PQ	ACCESS:    6709254	FORWARD:          0	MERGED:      72150	TO_CACHE:    6637093

L2C Instructions Evicting Data 0
L2C Translations Evicting Data 5363
L2C Data Evicting Data 2879747
L2C Instructions Evicting Instructions 0
L2C Translations Evicting Instructions 0
L2C Data Evicting Instructions 0
L2C Instructions Evicting Translations 0
L2C Translations Evicting Translations 1
L2C Data Evicting Translations 5300
L2C Dense regions hint from L2: 0
PSCL5 SPEC fills:          0  NON-SPEC fills:          0
PSCL5 Test counter :          0
PSCL5 Leapfrog:          0
PSCL5 MSHR merge:          0
PSCL5 TOTAL     ACCESS:          0  HIT:          0  MISS:          0  HIT %:       -nan  MISS %:       -nan   MPKI: 0
PSCL5 PREFETCH  REQUESTED:          0  ISSUED:          0  USEFUL:          0  USELESS:          0
PSCL5 USEFUL LOAD PREFETCHES:          0 PREFETCH ISSUED TO LOWER LEVEL:          0  ACCURACY: -nan
PSCL5 TIMELY PREFETCHES:          0 LATE PREFETCHES: 0 DROPPED PREFETCHES: 0
PSCL5 COMMIT LATE PREFETCHES: 0 MISSED OPPORTUNITY: 0 LATE IN PQ: 0 UNCOVERED: 0
PSCL5 COMMIT LATE MSHR PREFETCHES: 0
PSCL5 MPKI TOTAL: 0 MSHR LATE: 0 PQ LATE: 0 COMMIT LATE: 0 MISSED OPPORTUNITY: 0 UNCOVERED: 0
PSCL5 PREFETCHES SAME FILL-ORIGIN LEVEL: 0 DIFFERENT FILL-ORIGIN LEVEL: 0

PSCL4 SPEC fills:          0  NON-SPEC fills:          0
PSCL4 Test counter :          0
PSCL4 Leapfrog:          0
PSCL4 MSHR merge:          0
PSCL4 TOTAL     ACCESS:          0  HIT:          0  MISS:          0  HIT %:       -nan  MISS %:       -nan   MPKI: 0
PSCL4 PREFETCH  REQUESTED:          0  ISSUED:          0  USEFUL:          0  USELESS:          0
PSCL4 USEFUL LOAD PREFETCHES:          0 PREFETCH ISSUED TO LOWER LEVEL:          0  ACCURACY: -nan
PSCL4 TIMELY PREFETCHES:          0 LATE PREFETCHES: 0 DROPPED PREFETCHES: 0
PSCL4 COMMIT LATE PREFETCHES: 0 MISSED OPPORTUNITY: 0 LATE IN PQ: 0 UNCOVERED: 0
PSCL4 COMMIT LATE MSHR PREFETCHES: 0
PSCL4 MPKI TOTAL: 0 MSHR LATE: 0 PQ LATE: 0 COMMIT LATE: 0 MISSED OPPORTUNITY: 0 UNCOVERED: 0
PSCL4 PREFETCHES SAME FILL-ORIGIN LEVEL: 0 DIFFERENT FILL-ORIGIN LEVEL: 0

PSCL3 SPEC fills:          0  NON-SPEC fills:          0
PSCL3 Test counter :          0
PSCL3 Leapfrog:          0
PSCL3 MSHR merge:          0
PSCL3 TOTAL     ACCESS:          0  HIT:          0  MISS:          0  HIT %:       -nan  MISS %:       -nan   MPKI: 0
PSCL3 PREFETCH  REQUESTED:          0  ISSUED:          0  USEFUL:          0  USELESS:          0
PSCL3 USEFUL LOAD PREFETCHES:          0 PREFETCH ISSUED TO LOWER LEVEL:          0  ACCURACY: -nan
PSCL3 TIMELY PREFETCHES:          0 LATE PREFETCHES: 0 DROPPED PREFETCHES: 0
PSCL3 COMMIT LATE PREFETCHES: 0 MISSED OPPORTUNITY: 0 LATE IN PQ: 0 UNCOVERED: 0
PSCL3 COMMIT LATE MSHR PREFETCHES: 0
PSCL3 MPKI TOTAL: 0 MSHR LATE: 0 PQ LATE: 0 COMMIT LATE: 0 MISSED OPPORTUNITY: 0 UNCOVERED: 0
PSCL3 PREFETCHES SAME FILL-ORIGIN LEVEL: 0 DIFFERENT FILL-ORIGIN LEVEL: 0

PSCL2 SPEC fills:          0  NON-SPEC fills:          0
PSCL2 Test counter :          0
PSCL2 Leapfrog:          0
PSCL2 MSHR merge:          0
PSCL2 TOTAL     ACCESS:          0  HIT:          0  MISS:          0  HIT %:       -nan  MISS %:       -nan   MPKI: 0
PSCL2 PREFETCH  REQUESTED:          0  ISSUED:          0  USEFUL:          0  USELESS:          0
PSCL2 USEFUL LOAD PREFETCHES:          0 PREFETCH ISSUED TO LOWER LEVEL:          0  ACCURACY: -nan
PSCL2 TIMELY PREFETCHES:          0 LATE PREFETCHES: 0 DROPPED PREFETCHES: 0
PSCL2 COMMIT LATE PREFETCHES: 0 MISSED OPPORTUNITY: 0 LATE IN PQ: 0 UNCOVERED: 0
PSCL2 COMMIT LATE MSHR PREFETCHES: 0
PSCL2 MPKI TOTAL: 0 MSHR LATE: 0 PQ LATE: 0 COMMIT LATE: 0 MISSED OPPORTUNITY: 0 UNCOVERED: 0
PSCL2 PREFETCHES SAME FILL-ORIGIN LEVEL: 0 DIFFERENT FILL-ORIGIN LEVEL: 0

LLC SPEC fills:          0  NON-SPEC fills:        849
LLC Test counter :          0
LLC Leapfrog:          0
LLC MSHR merge:          0
LLC TOTAL     ACCESS:    4188658  HIT:    1418305  MISS:    2770353  HIT %:    33.8606  MISS %:    66.1394   MPKI: 13.8518
LLC LOAD      TOTAL       ACCESS:      44177  HIT:       4973  MISS:      39204  HIT %:     11.257  MISS %:     88.743   MPKI: 0.19602
LLC LOAD      NON_SPEC    ACCESS:        986  HIT:        137  MISS:        849  HIT %:    13.8945  MISS %:    86.1055   MPKI: 0.004245
LLC LOAD      SPEC        ACCESS:      43191  HIT:       4836  MISS:      38355  HIT %:    11.1968  MISS %:    88.8032   MPKI: 0.191775
LLC RFO       NON_SPEC    ACCESS:    1190768  HIT:          0  MISS:    1190768  HIT %:          0  MISS %:        100   MPKI: 5.95384
LLC PREFETCH  NON_SPEC    ACCESS:    1713537  HIT:     205887  MISS:    1507650  HIT %:    12.0153  MISS %:    87.9847   MPKI: 7.53825
LLC WRITEBACK NON_SPEC    ACCESS:    1190990  HIT:    1190966  MISS:         24  HIT %:     99.998  MISS %: 0.00201513   MPKI: 0.00012
LLC CLEAN_EVICTION NON_SPEC    ACCESS:      43741  HIT:      16453  MISS:      27288  HIT %:    37.6146  MISS %:    62.3854   MPKI: 0.13644
LLC COMMIT LOAD NON_SPEC    ACCESS:         81  HIT:          6  MISS:         75  HIT %:    7.40741  MISS %:    92.5926   MPKI: 0.000375
LLC LOAD TRANSLATION NON_SPEC    ACCESS:       5364  HIT:         20  MISS:       5344  HIT %:   0.372856  MISS %:    99.6271   MPKI: 0.02672
LLC PREFETCH  REQUESTED:          0  ISSUED:          0  USEFUL:       1422  USELESS:    1506494
LLC USEFUL LOAD PREFETCHES:       1422 PREFETCH ISSUED TO LOWER LEVEL:    1507651  ACCURACY: 0.0943189
LLC TIMELY PREFETCHES:       1422 LATE PREFETCHES: 0 DROPPED PREFETCHES: 0
LLC COMMIT LATE PREFETCHES: 0 MISSED OPPORTUNITY: 0 LATE IN PQ: 0 UNCOVERED: 0
LLC COMMIT LATE MSHR PREFETCHES: 0
LLC MPKI TOTAL: 0.19602 MSHR LATE: 0 PQ LATE: 0 COMMIT LATE: 0 MISSED OPPORTUNITY: 0 UNCOVERED: 0
LLC PREFETCHES SAME FILL-ORIGIN LEVEL: 882 DIFFERENT FILL-ORIGIN LEVEL: 0
LLC AVERAGE MISS LATENCY: 247.659 cycles
LLC AVERAGE MISS LATENCY LOAD: 150.894 cycles
LLC AVERAGE MISS LATENCY PREFETCH: 204.63 cycles
LLC AVERAGE MSHR OCCUPANCY: 7.68929
LLC MSHR FULL: 0
LLC RQ	ACCESS:    1240396	FORWARD:          0	MERGED:          0	TO_CACHE:    1240392
LLC WQ	ACCESS:    1234731	FORWARD:          5	MERGED:          0	TO_CACHE:    1234731
LLC PQ	ACCESS:    1714212	FORWARD:          0	MERGED:          4	TO_CACHE:    1714207

LLC Dense regions hint to LLC: 0

RAW hits: 1070409
Loads Generated: 58645943
Loads sent to L1D: 57575530
Stores Generated: 36649052
Stores sent to L1D: 36649060
Major fault: 0 Minor fault: 48769
Allocated PAGES: 48769
Total Load insts: 68615324
Total Non-spec loads: 6116764
Percentage of speculative loads: 91.0854

LeapFrogging counter: 665
Commit hits: 29001008 miss: 23202493
Commit hit %: 55.5538 miss %: 44.4462
Commits not translated: 0
Loads retired: 2113344
Stores retired: 36649060
Cache fills: 2113344
L1D response latency: 14.5751 cycles
Load retirement latency: 41.0025 cycles
OOO test counter: 0
Discarded buffer inserts: 29001008 hits: 47427 hit %: 0.163536
Filter prediction accuracy: 99.9667
------------------
Depth Distribution
------------------
depth 0: 7087108
depth 1: 6701146
depth 2: 3593615
depth 3: 5858328
depth 4: 43010459
depth 5: 6022164
depth 6: 961076
depth 7: 71570
depth 8: 1974
depth 9: 15
depth 10: 4
depth 11: 3
depth 12: 0
depth 13: 0
depth 14: 0
depth 15: 0
depth 16: 0
depth 17: 0
depth 18: 0
depth 19: 0
depth 20: 0
depth 21: 0
depth 22: 0
depth 23: 0
depth 24: 0
depth 25: 0
depth 26: 0
depth 27: 0
depth 28: 0
depth 29: 0
Total: 73307462
------------------
ST read accesses: 58622114
ST write accesses: 23855
PT read accesses: 1274308709
PT write accesses: 38299755
FILTER read accesses: 220458458
FILTER write accesses: 16017854
GHR read accesses: 688197222
GHR write accesses: 93259563
PERC read accesses: 9254278503
PERC write accesses: 30979485
GHR counter read accesses: 117291938
GHR counter write accesses: 66647713
GHR ip read accesses: 199026759
GHR ip write accesses: 234583876
ST tag read accesses: 17383516988
ST tag write accesses: 289938441

DRAM Statistics
 CHANNEL 0
 RQ ROW_BUFFER_HIT:    1339907  ROW_BUFFER_MISS:    1403134
 DBUS_CONGESTED:       4279
 WQ ROW_BUFFER_HIT:     307083  ROW_BUFFER_MISS:     923641  FULL:          0

 AVG_CONGESTED_CYCLE: 4
 All warmup complete: 2
Channel 0 Bank busy for read cycles: 0
Channel 0 Bank busy for write cycles: 0
Channel 0
Rank 0
0banks busy for read cycles: 2259710
0banks busy for write cycles: 40105
1banks busy for read cycles: 33739827
1banks busy for write cycles: 4285940
2banks busy for read cycles: 42359093
2banks busy for write cycles: 5786705
3banks busy for read cycles: 20933166
3banks busy for write cycles: 6515591
4banks busy for read cycles: 12798135
4banks busy for write cycles: 7109220
5banks busy for read cycles: 6771713
5banks busy for write cycles: 7046457
6banks busy for read cycles: 1638501
6banks busy for write cycles: 6255667
7banks busy for read cycles: 176113
7banks busy for write cycles: 4779495
8banks busy for read cycles: 32886
8banks busy for write cycles: 4587372

CPU 0 Branch Prediction Accuracy: 99.9697% MPKI: 0.00256 Average ROB Occupancy at Mispredict: 53.5391
Branch types
NOT_BRANCH: 198311676 99.1558%
BRANCH_DIRECT_JUMP: 0 0%
BRANCH_INDIRECT: 0 0%
BRANCH_CONDITIONAL: 1688003 0.844001%
BRANCH_DIRECT_CALL: 0 0%
BRANCH_INDIRECT_CALL: 0 0%
BRANCH_RETURN: 0 0%
BRANCH_OTHER: 0 0%

DRAM PAGES: 1048576
Allocated PAGES: 48769
