Initialize SIGNATURE TABLE
ST_SET: 1
ST_WAY: 256
ST_TAG_BIT: 16
ST_TAG_MASK: ffff

Initialize PATTERN TABLE
PT_SET: 512
PT_WAY: 4
SIG_DELTA_BIT: 7
C_SIG_BIT: 4
C_DELTA_BIT: 4

Initialize PREFETCH FILTER
FILTER_SET: 1024

Initialize PERCEPTRON
PERC_ENTRIES: 4096
PERC_FEATURES: 9

*** ChampSim Multicore Out-of-Order Simulator ***

Warmup Instructions: 50000000
Simulation Instructions: 200000000
Number of CPUs: 1
LLC sets: 2048
LLC ways: 16
L0D sets: 16
L0D ways: 2
ROB size: 352
LQ size: 128
SQ size: 72
Secure Berti: OFF
Berti: OFF
Berti Fill: OFF
On commit prefetching: ON
Hit-based filter: ON
Time-guarding: ON
Free-slotting: ON
Leap-frogging: ON
Train prefetcher on L0D bypass: OFF
No translation penalty for prefetchers: OFF
Prefetch to L0D only: OFF
Prefetch to L1D only: OFF
Clean evictions: ON
Commit loads: ON
Commit write: ON
Fill commit loads to L2C, LLC: ON
DRAM IO FREQUENCY: 6400
ROB SIZE: 352
Off-chip DRAM Size: 4096 MB Channels: 1 Width: 64-bit Data Rate: 6400 MT/s
CPU 0 runs /home/sumon/secure_berti/GhostMinion/../../traces/spec/605.mcf_s-1152B.champsimtrace.xz
.xz
BTB has LRU replacement policy
ITLB has LRU replacement policy
DTLB has LRU replacement policy
STLB has LRU replacement policy
L1I has LRU replacement policy
L0D has LRU replacement policy
L1D has LRU replacement policy
PERC_ENTRIES: 4096
L2C has LRU replacement policy
LLC has LRU replacement policy
Heartbeat CPU 0 instructions: 10000001 cycles: 5575262 heartbeat IPC: 1.79364 cumulative IPC: 1.79364 (Simulation time: 0 hr 0 min 46 sec) 
Heartbeat CPU 0 instructions: 20000000 cycles: 11105752 heartbeat IPC: 1.80816 cumulative IPC: 1.80087 (Simulation time: 0 hr 1 min 33 sec) 
Heartbeat CPU 0 instructions: 30000000 cycles: 16659785 heartbeat IPC: 1.80049 cumulative IPC: 1.80074 (Simulation time: 0 hr 2 min 19 sec) 
Heartbeat CPU 0 instructions: 40000001 cycles: 22229933 heartbeat IPC: 1.79528 cumulative IPC: 1.79938 (Simulation time: 0 hr 3 min 5 sec) 
Heartbeat CPU 0 instructions: 50000001 cycles: 27787008 heartbeat IPC: 1.79951 cumulative IPC: 1.7994 (Simulation time: 0 hr 3 min 50 sec) 

Warmup complete CPU 0 instructions: 50000001 cycles: 27787008 (Simulation time: 0 hr 3 min 50 sec) 

Heartbeat CPU 0 instructions: 60000001 cycles: 63633633 heartbeat IPC: 0.278966 cumulative IPC: 0.278966 (Simulation time: 0 hr 4 min 43 sec) 
Heartbeat CPU 0 instructions: 70000000 cycles: 99829077 heartbeat IPC: 0.276278 cumulative IPC: 0.277616 (Simulation time: 0 hr 5 min 35 sec) 
Heartbeat CPU 0 instructions: 80000001 cycles: 135432620 heartbeat IPC: 0.280871 cumulative IPC: 0.278692 (Simulation time: 0 hr 6 min 28 sec) 
Heartbeat CPU 0 instructions: 90000003 cycles: 171390002 heartbeat IPC: 0.278107 cumulative IPC: 0.278546 (Simulation time: 0 hr 7 min 20 sec) 
Heartbeat CPU 0 instructions: 100000001 cycles: 207525735 heartbeat IPC: 0.276734 cumulative IPC: 0.278182 (Simulation time: 0 hr 8 min 13 sec) 
Heartbeat CPU 0 instructions: 110000000 cycles: 243825506 heartbeat IPC: 0.275484 cumulative IPC: 0.277728 (Simulation time: 0 hr 9 min 5 sec) 
Heartbeat CPU 0 instructions: 120000002 cycles: 280408411 heartbeat IPC: 0.273352 cumulative IPC: 0.277095 (Simulation time: 0 hr 9 min 59 sec) 
Heartbeat CPU 0 instructions: 130000002 cycles: 317859374 heartbeat IPC: 0.267016 cumulative IPC: 0.275793 (Simulation time: 0 hr 10 min 53 sec) 
Heartbeat CPU 0 instructions: 140000003 cycles: 355964035 heartbeat IPC: 0.262435 cumulative IPC: 0.274242 (Simulation time: 0 hr 11 min 48 sec) 
Heartbeat CPU 0 instructions: 150000001 cycles: 394749024 heartbeat IPC: 0.257832 cumulative IPC: 0.272508 (Simulation time: 0 hr 12 min 44 sec) 
Heartbeat CPU 0 instructions: 160000000 cycles: 434407102 heartbeat IPC: 0.252155 cumulative IPC: 0.270523 (Simulation time: 0 hr 13 min 42 sec) 
Heartbeat CPU 0 instructions: 170000001 cycles: 475410990 heartbeat IPC: 0.243879 cumulative IPC: 0.268082 (Simulation time: 0 hr 14 min 42 sec) 
Heartbeat CPU 0 instructions: 180000003 cycles: 516682797 heartbeat IPC: 0.242296 cumulative IPC: 0.265905 (Simulation time: 0 hr 15 min 43 sec) 
Heartbeat CPU 0 instructions: 190000002 cycles: 558579861 heartbeat IPC: 0.23868 cumulative IPC: 0.263756 (Simulation time: 0 hr 16 min 42 sec) 
Heartbeat CPU 0 instructions: 200000001 cycles: 600870043 heartbeat IPC: 0.236461 cumulative IPC: 0.261742 (Simulation time: 0 hr 17 min 39 sec) 
Heartbeat CPU 0 instructions: 210000002 cycles: 642700121 heartbeat IPC: 0.239062 cumulative IPC: 0.260199 (Simulation time: 0 hr 18 min 34 sec) 
Heartbeat CPU 0 instructions: 220000000 cycles: 683185735 heartbeat IPC: 0.247001 cumulative IPC: 0.259384 (Simulation time: 0 hr 19 min 29 sec) 
Heartbeat CPU 0 instructions: 230000002 cycles: 723398421 heartbeat IPC: 0.248678 cumulative IPC: 0.258765 (Simulation time: 0 hr 20 min 23 sec) 
Heartbeat CPU 0 instructions: 240000000 cycles: 766588774 heartbeat IPC: 0.231533 cumulative IPC: 0.257173 (Simulation time: 0 hr 21 min 17 sec) 
Heartbeat CPU 0 instructions: 250000001 cycles: 807684973 heartbeat IPC: 0.243332 cumulative IPC: 0.256444 (Simulation time: 0 hr 22 min 8 sec) 
Finished CPU 0 instructions: 200000000 cycles: 779897965 cumulative IPC: 0.256444 (Simulation time: 0 hr 22 min 8 sec) 
 Instruction ID: 250000117

ChampSim completed all CPUs

Region of Interest Statistics

CPU 0 cumulative IPC: 0.256444 instructions: 200000000 cycles: 779897965
ITLB SPEC fills:          0  NON-SPEC fills:          0
ITLB Test counter :          0
ITLB Leapfrog:          0
ITLB MSHR merge:          0
ITLB TOTAL     ACCESS:   34758077  HIT:   34758077  MISS:          0  HIT %:        100  MISS %:          0   MPKI: 0
ITLB LOAD TRANSLATION NON_SPEC    ACCESS:   34758077  HIT:   34758077  MISS:          0  HIT %:        100  MISS %:          0   MPKI: 0
ITLB PREFETCH  REQUESTED:          0  ISSUED:          0  USEFUL:          0  USELESS:          0
ITLB USEFUL LOAD PREFETCHES:          0 PREFETCH ISSUED TO LOWER LEVEL:          0  ACCURACY: -nan
ITLB TIMELY PREFETCHES:          0 LATE PREFETCHES: 0 DROPPED PREFETCHES: 0
ITLB COMMIT LATE PREFETCHES: 0 MISSED OPPORTUNITY: 0 LATE IN PQ: 0 UNCOVERED: 0
ITLB COMMIT LATE MSHR PREFETCHES: 0
ITLB MPKI TOTAL: 0 MSHR LATE: 0 PQ LATE: 0 COMMIT LATE: 0 MISSED OPPORTUNITY: 0 UNCOVERED: 0
ITLB PREFETCHES SAME FILL-ORIGIN LEVEL: 0 DIFFERENT FILL-ORIGIN LEVEL: 0
ITLB AVERAGE MISS LATENCY: -nan cycles
ITLB AVERAGE MISS LATENCY LOAD: -nan cycles
ITLB AVERAGE MISS LATENCY PREFETCH: -nan cycles
ITLB AVERAGE MSHR OCCUPANCY: 0
ITLB MSHR FULL: 0
ITLB RQ	ACCESS:   36220510	FORWARD:          0	MERGED:    1462434	TO_CACHE:   34758076

DTLB SPEC fills:          0  NON-SPEC fills:          0
DTLB Test counter :          0
DTLB Leapfrog:          0
DTLB MSHR merge:          0
DTLB TOTAL     ACCESS:   59695802  HIT:   52386096  MISS:    7309706  HIT %:    87.7551  MISS %:    12.2449   MPKI: 36.5485
DTLB LOAD TRANSLATION NON_SPEC    ACCESS:   59695802  HIT:   52386096  MISS:    7309706  HIT %:    87.7551  MISS %:    12.2449   MPKI: 36.5485
DTLB PREFETCH  REQUESTED:          0  ISSUED:          0  USEFUL:          0  USELESS:          0
DTLB USEFUL LOAD PREFETCHES:          0 PREFETCH ISSUED TO LOWER LEVEL:          0  ACCURACY: -nan
DTLB TIMELY PREFETCHES:          0 LATE PREFETCHES: 0 DROPPED PREFETCHES: 0
DTLB COMMIT LATE PREFETCHES: 0 MISSED OPPORTUNITY: 0 LATE IN PQ: 0 UNCOVERED: 0
DTLB COMMIT LATE MSHR PREFETCHES: 0
DTLB MPKI TOTAL: 0 MSHR LATE: 0 PQ LATE: 0 COMMIT LATE: 0 MISSED OPPORTUNITY: 0 UNCOVERED: 0
DTLB PREFETCHES SAME FILL-ORIGIN LEVEL: 0 DIFFERENT FILL-ORIGIN LEVEL: 0
DTLB AVERAGE MISS LATENCY: 11.4638 cycles
DTLB AVERAGE MISS LATENCY LOAD: -nan cycles
DTLB AVERAGE MISS LATENCY PREFETCH: -nan cycles
DTLB AVERAGE MSHR OCCUPANCY: 0.0926482
DTLB MSHR FULL: 1.66157e-08
DTLB RQ	ACCESS:   72812564	FORWARD:          0	MERGED:   12628637	TO_CACHE:   60183927

STLB SPEC fills:          0  NON-SPEC fills:          0
STLB Test counter :          0
STLB Leapfrog:          0
STLB MSHR merge:          0
STLB TOTAL     ACCESS:    7309706  HIT:    7209989  MISS:      99717  HIT %:    98.6358  MISS %:    1.36417   MPKI: 0.498585
STLB LOAD TRANSLATION NON_SPEC    ACCESS:    7309706  HIT:    7209989  MISS:      99717  HIT %:    98.6358  MISS %:    1.36417   MPKI: 0.498585
STLB PREFETCH  REQUESTED:          0  ISSUED:          0  USEFUL:          0  USELESS:          0
STLB USEFUL LOAD PREFETCHES:          0 PREFETCH ISSUED TO LOWER LEVEL:          0  ACCURACY: -nan
STLB TIMELY PREFETCHES:          0 LATE PREFETCHES: 0 DROPPED PREFETCHES: 0
STLB COMMIT LATE PREFETCHES: 0 MISSED OPPORTUNITY: 0 LATE IN PQ: 0 UNCOVERED: 0
STLB COMMIT LATE MSHR PREFETCHES: 0
STLB MPKI TOTAL: 0 MSHR LATE: 0 PQ LATE: 0 COMMIT LATE: 0 MISSED OPPORTUNITY: 0 UNCOVERED: 0
STLB PREFETCHES SAME FILL-ORIGIN LEVEL: 0 DIFFERENT FILL-ORIGIN LEVEL: 0
STLB AVERAGE MISS LATENCY: 173.743 cycles
STLB AVERAGE MISS LATENCY LOAD: -nan cycles
STLB AVERAGE MISS LATENCY PREFETCH: -nan cycles
STLB AVERAGE MSHR OCCUPANCY: 0.0226677
STLB MSHR FULL: 0
STLB RQ	ACCESS:    7309706	FORWARD:          0	MERGED:          0	TO_CACHE:    7309706

STLB Hit, L1D data hit: 0
STLB Hit, L2C data hit: 0
STLB Hit, LLC data hit: 0
STLB Hit, LLC data miss: 0
STLB STLB hints to L2: 0
L0D SPEC fills:   33758156  NON-SPEC fills:          0
L0D TimeGuard Request with older TS:     413756 Restricted eviction:     237114 read:     227907
L0D Test counter :          0
L0D Leapfrog:          0
L0D MSHR merge:    2518101
L0D TOTAL     ACCESS:   52491529  HIT:    3164884  MISS:   49326645  HIT %:    6.02932  MISS %:    93.9707   MPKI: 246.633
L0D LOAD      TOTAL       ACCESS:   52491529  HIT:    3164884  MISS:   49326645  HIT %:    6.02932  MISS %:    93.9707   MPKI: 246.633
L0D LOAD      NON_SPEC    ACCESS:   15904814  HIT:     573435  MISS:   15331379  HIT %:    3.60542  MISS %:    96.3946   MPKI: 76.6569
L0D LOAD      SPEC        ACCESS:   36586715  HIT:    2591449  MISS:   33995266  HIT %:    7.08303  MISS %:     92.917   MPKI: 169.976
L0D PREFETCH  REQUESTED:          0  ISSUED:          0  USEFUL:          0  USELESS:          0
L0D USEFUL LOAD PREFETCHES:          0 PREFETCH ISSUED TO LOWER LEVEL:          0  ACCURACY: -nan
L0D TIMELY PREFETCHES:          0 LATE PREFETCHES: 0 DROPPED PREFETCHES: 0
L0D COMMIT LATE PREFETCHES: 0 MISSED OPPORTUNITY: 0 LATE IN PQ: 0 UNCOVERED: 0
L0D COMMIT LATE MSHR PREFETCHES: 0
L0D MPKI TOTAL: 259.224 MSHR LATE: 0 PQ LATE: 0 COMMIT LATE: 0 MISSED OPPORTUNITY: 0 UNCOVERED: 0
L0D PREFETCHES SAME FILL-ORIGIN LEVEL: 0 DIFFERENT FILL-ORIGIN LEVEL: 0
L0D AVERAGE MISS LATENCY: 24.6444 cycles
L0D AVERAGE MISS LATENCY LOAD: 24.6444 cycles
L0D AVERAGE MISS LATENCY PREFETCH: -nan cycles
L0D AVERAGE MSHR OCCUPANCY: 2.22997
L0D MSHR FULL: 0.161756
L0D RQ	ACCESS:   68382746	FORWARD:          0	MERGED:   13373115	TO_CACHE:   55009631
L0D WQ	ACCESS:   17802933	FORWARD:          0	MERGED:          0	TO_CACHE:   17802933

L1D SPEC fills:          0  NON-SPEC fills:    3568218
L1D Test counter :          0
L1D Leapfrog:          0
L1D MSHR merge:       4286
L1D TOTAL     ACCESS:   81560039  HIT:   57751809  MISS:   23808230  HIT %:     70.809  MISS %:     29.191   MPKI: 119.041
L1D LOAD      TOTAL       ACCESS:   49322359  HIT:   35942524  MISS:   13379835  HIT %:    72.8727  MISS %:    27.1273   MPKI: 66.8992
L1D LOAD      NON_SPEC    ACCESS:   15330655  HIT:   11762437  MISS:    3568218  HIT %:    76.7249  MISS %:    23.2751   MPKI: 17.8411
L1D LOAD      SPEC        ACCESS:   33991704  HIT:   24180087  MISS:    9811617  HIT %:    71.1353  MISS %:    28.8647   MPKI: 49.0581
L1D RFO       NON_SPEC    ACCESS:   16638575  HIT:   16029079  MISS:     609496  HIT %:    96.3368  MISS %:    3.66315   MPKI: 3.04748
L1D COMMIT LOAD NON_SPEC    ACCESS:    6078142  HIT:    5717366  MISS:     360776  HIT %:    94.0644  MISS %:    5.93563   MPKI: 1.80388
L1D COMMIT WRITE NON_SPEC    ACCESS:    9520963  HIT:      62840  MISS:    9458123  HIT %:   0.660017  MISS %:      99.34   MPKI: 47.2906
L1D PREFETCH  REQUESTED:          0  ISSUED:          0  USEFUL:          0  USELESS:          0
L1D USEFUL LOAD PREFETCHES:          0 PREFETCH ISSUED TO LOWER LEVEL:          0  ACCURACY: -nan
L1D TIMELY PREFETCHES:          0 LATE PREFETCHES: 0 DROPPED PREFETCHES: 0
L1D COMMIT LATE PREFETCHES: 0 MISSED OPPORTUNITY: 0 LATE IN PQ: 0 UNCOVERED: 0
L1D COMMIT LATE MSHR PREFETCHES: 0
L1D MPKI TOTAL: 66.9206 MSHR LATE: 0 PQ LATE: 0 COMMIT LATE: 0 MISSED OPPORTUNITY: 0 UNCOVERED: 0
L1D PREFETCHES SAME FILL-ORIGIN LEVEL: 0 DIFFERENT FILL-ORIGIN LEVEL: 0
L1D AVERAGE MISS LATENCY: 40.6397 cycles
L1D AVERAGE MISS LATENCY LOAD: 69.1487 cycles
L1D AVERAGE MISS LATENCY PREFETCH: -nan cycles
L1D AVERAGE MSHR OCCUPANCY: 0.773101
L1D MSHR FULL: 1.40747e-06
L1D RQ	ACCESS:   60305153	FORWARD:          0	MERGED:    4877511	TO_CACHE:   55418556
L1D WQ	ACCESS:   27324990	FORWARD:       9086	MERGED:     137599	TO_CACHE:   27187391

L1D UNIQUE REGIONS ACCESSED: 0
L1D REGIONS CONFLICTS: 0
L1D Cross Page Prefetch Requests: 0
L1D Same Page Prefetch Requests: 0
L1D ROI Sum of L1D PQ occupancy: 0
L1D PREFETCHES PUSHED FROM L2C: 0
L1I SPEC fills:          0  NON-SPEC fills:          0
L1I Test counter :          0
L1I Leapfrog:          0
L1I MSHR merge:          0
L1I TOTAL     ACCESS:   36220511  HIT:   36220509  MISS:          2  HIT %:        100  MISS %: 5.52173e-06   MPKI: 1e-05
L1I LOAD      TOTAL       ACCESS:   36220511  HIT:   36220509  MISS:          2  HIT %:        100  MISS %: 5.52173e-06   MPKI: 1e-05
L1I LOAD      NON_SPEC    ACCESS:   36220511  HIT:   36220509  MISS:          2  HIT %:        100  MISS %: 5.52173e-06   MPKI: 1e-05
L1I PREFETCH  REQUESTED:          0  ISSUED:          0  USEFUL:          0  USELESS:          0
L1I USEFUL LOAD PREFETCHES:          0 PREFETCH ISSUED TO LOWER LEVEL:          0  ACCURACY: -nan
L1I TIMELY PREFETCHES:          0 LATE PREFETCHES: 0 DROPPED PREFETCHES: 0
L1I COMMIT LATE PREFETCHES: 0 MISSED OPPORTUNITY: 0 LATE IN PQ: 0 UNCOVERED: 0
L1I COMMIT LATE MSHR PREFETCHES: 0
L1I MPKI TOTAL: 1e-05 MSHR LATE: 0 PQ LATE: 0 COMMIT LATE: 0 MISSED OPPORTUNITY: 0 UNCOVERED: 0
L1I PREFETCHES SAME FILL-ORIGIN LEVEL: 0 DIFFERENT FILL-ORIGIN LEVEL: 0
L1I AVERAGE MISS LATENCY: 214 cycles
L1I AVERAGE MISS LATENCY LOAD: 214 cycles
L1I AVERAGE MISS LATENCY PREFETCH: -nan cycles
L1I AVERAGE MSHR OCCUPANCY: 2.76087e-08
L1I MSHR FULL: 0
L1I RQ	ACCESS:   55431932	FORWARD:          0	MERGED:   19211422	TO_CACHE:   36220510

BTB SPEC fills:          0  NON-SPEC fills:          0
BTB Test counter :          0
BTB Leapfrog:          0
BTB MSHR merge:          0
BTB TOTAL     ACCESS:   49743916  HIT:   48131262  MISS:    1612654  HIT %:    96.7581  MISS %:    3.24191   MPKI: 8.06327
BTB BRANCH_DIRECT_JUMP	ACCESS:    5836928  HIT:    5836891  MISS:         37
BTB BRANCH_INDIRECT	ACCESS:          0  HIT:          0  MISS:          0
BTB BRANCH_CONDITIONAL	ACCESS:   36112465  HIT:   36112386  MISS:         79
BTB BRANCH_DIRECT_CALL	ACCESS:    3647058  HIT:    3647040  MISS:         18
BTB BRANCH_INDIRECT_CALL	ACCESS:     250202  HIT:     250194  MISS:          8
BTB BRANCH_RETURN	ACCESS:    3897263  HIT:    2284751  MISS:    1612512
BTB BRANCH_OTHER ACCESS:          0  HIT:          0  MISS:          0

L2C SPEC fills:          0  NON-SPEC fills:    2474903
L2C Test counter :          0
L2C Leapfrog:          0
L2C MSHR merge:     894961
L2C TOTAL     ACCESS:   33558394  HIT:   13215845  MISS:   20342549  HIT %:    39.3816  MISS %:    60.6184   MPKI: 101.713
L2C LOAD      TOTAL       ACCESS:   13379651  HIT:    4293900  MISS:    9085751  HIT %:    32.0928  MISS %:    67.9072   MPKI: 45.4288
L2C LOAD      NON_SPEC    ACCESS:    3568195  HIT:    1093290  MISS:    2474905  HIT %:    30.6399  MISS %:    69.3601   MPKI: 12.3745
L2C LOAD      SPEC        ACCESS:    9811456  HIT:    3200610  MISS:    6610846  HIT %:    32.6212  MISS %:    67.3788   MPKI: 33.0542
L2C RFO       NON_SPEC    ACCESS:     609415  HIT:     323395  MISS:     286020  HIT %:    53.0665  MISS %:    46.9335   MPKI: 1.4301
L2C PREFETCH  NON_SPEC    ACCESS:   11526398  HIT:    6119366  MISS:    5407032  HIT %:      53.09  MISS %:      46.91   MPKI: 27.0352
L2C WRITEBACK NON_SPEC    ACCESS:     677960  HIT:     677928  MISS:         32  HIT %:    99.9953  MISS %: 0.00472004   MPKI: 0.00016
L2C CLEAN_EVICTION NON_SPEC    ACCESS:    6505993  HIT:    1246460  MISS:    5259533  HIT %:    19.1586  MISS %:    80.8414   MPKI: 26.2977
L2C COMMIT LOAD NON_SPEC    ACCESS:     360776  HIT:      94546  MISS:     266230  HIT %:    26.2063  MISS %:    73.7937   MPKI: 1.33115
L2C LOAD TRANSLATION NON_SPEC    ACCESS:     498201  HIT:     460250  MISS:      37951  HIT %:    92.3824  MISS %:    7.61761   MPKI: 0.189755
L2C PREFETCH  REQUESTED:   14198495  ISSUED:   14196535  USEFUL:    2470080  USELESS:    2937358
L2C USEFUL LOAD PREFETCHES:    2470080 PREFETCH ISSUED TO LOWER LEVEL:    7403016  ACCURACY: 33.3659
L2C TIMELY PREFETCHES:    2470080 LATE PREFETCHES: 929478 DROPPED PREFETCHES: 0
L2C COMMIT LATE PREFETCHES: 0 MISSED OPPORTUNITY: 0 LATE IN PQ: 0 UNCOVERED: 0
L2C COMMIT LATE MSHR PREFETCHES: 0
L2C MPKI TOTAL: 45.4288 MSHR LATE: 4.64739 PQ LATE: 0 COMMIT LATE: 0 MISSED OPPORTUNITY: 0 UNCOVERED: 0
L2C PREFETCHES SAME FILL-ORIGIN LEVEL: 6336510 DIFFERENT FILL-ORIGIN LEVEL: 1066506
L2C AVERAGE MISS LATENCY: 76.2226 cycles
L2C AVERAGE MISS LATENCY LOAD: 84.8297 cycles
L2C AVERAGE MISS LATENCY PREFETCH: 138.196 cycles
L2C AVERAGE MSHR OCCUPANCY: 3.46496
L2C MSHR FULL: 8.31694e-05
L2C RQ	ACCESS:   14848310	FORWARD:          0	MERGED:          0	TO_CACHE:   14848043
L2C WQ	ACCESS:    7183953	FORWARD:        335	MERGED:          0	TO_CACHE:    7183953
L2C PQ	ACCESS:   14196535	FORWARD:          0	MERGED:     200473	TO_CACHE:   13995994

L2C Instructions Evicting Data 2
L2C Translations Evicting Data 37876
L2C Data Evicting Data 8410950
L2C Instructions Evicting Instructions 0
L2C Translations Evicting Instructions 0
L2C Data Evicting Instructions 1
L2C Instructions Evicting Translations 0
L2C Translations Evicting Translations 75
L2C Data Evicting Translations 23234
L2C Dense regions hint from L2: 0
PSCL5 SPEC fills:          0  NON-SPEC fills:          0
PSCL5 Test counter :          0
PSCL5 Leapfrog:          0
PSCL5 MSHR merge:          0
PSCL5 TOTAL     ACCESS:          0  HIT:          0  MISS:          0  HIT %:       -nan  MISS %:       -nan   MPKI: 0
PSCL5 PREFETCH  REQUESTED:          0  ISSUED:          0  USEFUL:          0  USELESS:          0
PSCL5 USEFUL LOAD PREFETCHES:          0 PREFETCH ISSUED TO LOWER LEVEL:          0  ACCURACY: -nan
PSCL5 TIMELY PREFETCHES:          0 LATE PREFETCHES: 0 DROPPED PREFETCHES: 0
PSCL5 COMMIT LATE PREFETCHES: 0 MISSED OPPORTUNITY: 0 LATE IN PQ: 0 UNCOVERED: 0
PSCL5 COMMIT LATE MSHR PREFETCHES: 0
PSCL5 MPKI TOTAL: 0 MSHR LATE: 0 PQ LATE: 0 COMMIT LATE: 0 MISSED OPPORTUNITY: 0 UNCOVERED: 0
PSCL5 PREFETCHES SAME FILL-ORIGIN LEVEL: 0 DIFFERENT FILL-ORIGIN LEVEL: 0

PSCL4 SPEC fills:          0  NON-SPEC fills:          0
PSCL4 Test counter :          0
PSCL4 Leapfrog:          0
PSCL4 MSHR merge:          0
PSCL4 TOTAL     ACCESS:          0  HIT:          0  MISS:          0  HIT %:       -nan  MISS %:       -nan   MPKI: 0
PSCL4 PREFETCH  REQUESTED:          0  ISSUED:          0  USEFUL:          0  USELESS:          0
PSCL4 USEFUL LOAD PREFETCHES:          0 PREFETCH ISSUED TO LOWER LEVEL:          0  ACCURACY: -nan
PSCL4 TIMELY PREFETCHES:          0 LATE PREFETCHES: 0 DROPPED PREFETCHES: 0
PSCL4 COMMIT LATE PREFETCHES: 0 MISSED OPPORTUNITY: 0 LATE IN PQ: 0 UNCOVERED: 0
PSCL4 COMMIT LATE MSHR PREFETCHES: 0
PSCL4 MPKI TOTAL: 0 MSHR LATE: 0 PQ LATE: 0 COMMIT LATE: 0 MISSED OPPORTUNITY: 0 UNCOVERED: 0
PSCL4 PREFETCHES SAME FILL-ORIGIN LEVEL: 0 DIFFERENT FILL-ORIGIN LEVEL: 0

PSCL3 SPEC fills:          0  NON-SPEC fills:          0
PSCL3 Test counter :          0
PSCL3 Leapfrog:          0
PSCL3 MSHR merge:          0
PSCL3 TOTAL     ACCESS:          0  HIT:          0  MISS:          0  HIT %:       -nan  MISS %:       -nan   MPKI: 0
PSCL3 PREFETCH  REQUESTED:          0  ISSUED:          0  USEFUL:          0  USELESS:          0
PSCL3 USEFUL LOAD PREFETCHES:          0 PREFETCH ISSUED TO LOWER LEVEL:          0  ACCURACY: -nan
PSCL3 TIMELY PREFETCHES:          0 LATE PREFETCHES: 0 DROPPED PREFETCHES: 0
PSCL3 COMMIT LATE PREFETCHES: 0 MISSED OPPORTUNITY: 0 LATE IN PQ: 0 UNCOVERED: 0
PSCL3 COMMIT LATE MSHR PREFETCHES: 0
PSCL3 MPKI TOTAL: 0 MSHR LATE: 0 PQ LATE: 0 COMMIT LATE: 0 MISSED OPPORTUNITY: 0 UNCOVERED: 0
PSCL3 PREFETCHES SAME FILL-ORIGIN LEVEL: 0 DIFFERENT FILL-ORIGIN LEVEL: 0

PSCL2 SPEC fills:          0  NON-SPEC fills:          0
PSCL2 Test counter :          0
PSCL2 Leapfrog:          0
PSCL2 MSHR merge:          0
PSCL2 TOTAL     ACCESS:          0  HIT:          0  MISS:          0  HIT %:       -nan  MISS %:       -nan   MPKI: 0
PSCL2 PREFETCH  REQUESTED:          0  ISSUED:          0  USEFUL:          0  USELESS:          0
PSCL2 USEFUL LOAD PREFETCHES:          0 PREFETCH ISSUED TO LOWER LEVEL:          0  ACCURACY: -nan
PSCL2 TIMELY PREFETCHES:          0 LATE PREFETCHES: 0 DROPPED PREFETCHES: 0
PSCL2 COMMIT LATE PREFETCHES: 0 MISSED OPPORTUNITY: 0 LATE IN PQ: 0 UNCOVERED: 0
PSCL2 COMMIT LATE MSHR PREFETCHES: 0
PSCL2 MPKI TOTAL: 0 MSHR LATE: 0 PQ LATE: 0 COMMIT LATE: 0 MISSED OPPORTUNITY: 0 UNCOVERED: 0
PSCL2 PREFETCHES SAME FILL-ORIGIN LEVEL: 0 DIFFERENT FILL-ORIGIN LEVEL: 0

LLC SPEC fills:          0  NON-SPEC fills:     386653
LLC Test counter :          0
LLC Leapfrog:          0
LLC MSHR merge:        109
LLC TOTAL     ACCESS:   22974275  HIT:   14190199  MISS:    8784076  HIT %:    61.7656  MISS %:    38.2344   MPKI: 43.9204
LLC LOAD      TOTAL       ACCESS:    8190721  HIT:    5646279  MISS:    2544442  HIT %:    68.9351  MISS %:    31.0649   MPKI: 12.7222
LLC LOAD      NON_SPEC    ACCESS:    2443414  HIT:    2056759  MISS:     386655  HIT %:    84.1756  MISS %:    15.8244   MPKI: 1.93328
LLC LOAD      SPEC        ACCESS:    5747307  HIT:    3589520  MISS:    2157787  HIT %:    62.4557  MISS %:    37.5443   MPKI: 10.7889
LLC RFO       NON_SPEC    ACCESS:     285108  HIT:     281313  MISS:       3795  HIT %:    98.6689  MISS %:    1.33107   MPKI: 0.018975
LLC PREFETCH  NON_SPEC    ACCESS:    7392070  HIT:    2676191  MISS:    4715879  HIT %:    36.2035  MISS %:    63.7965   MPKI: 23.5794
LLC WRITEBACK NON_SPEC    ACCESS:     413644  HIT:     405765  MISS:       7879  HIT %:    98.0952  MISS %:    1.90478   MPKI: 0.039395
LLC CLEAN_EVICTION NON_SPEC    ACCESS:    6422202  HIT:    4950675  MISS:    1471527  HIT %:    77.0869  MISS %:    22.9131   MPKI: 7.35764
LLC COMMIT LOAD NON_SPEC    ACCESS:     232579  HIT:     208808  MISS:      23771  HIT %:    89.7794  MISS %:    10.2206   MPKI: 0.118855
LLC LOAD TRANSLATION NON_SPEC    ACCESS:      37951  HIT:      21168  MISS:      16783  HIT %:    55.7772  MISS %:    44.2228   MPKI: 0.083915
LLC PREFETCH  REQUESTED:          0  ISSUED:          0  USEFUL:     195499  USELESS:    4520899
LLC USEFUL LOAD PREFETCHES:     195499 PREFETCH ISSUED TO LOWER LEVEL:    4716075  ACCURACY: 4.14538
LLC TIMELY PREFETCHES:     195499 LATE PREFETCHES: 196 DROPPED PREFETCHES: 0
LLC COMMIT LATE PREFETCHES: 0 MISSED OPPORTUNITY: 0 LATE IN PQ: 0 UNCOVERED: 0
LLC COMMIT LATE MSHR PREFETCHES: 0
LLC MPKI TOTAL: 12.7222 MSHR LATE: 0.00098 PQ LATE: 0 COMMIT LATE: 0 MISSED OPPORTUNITY: 0 UNCOVERED: 0
LLC PREFETCHES SAME FILL-ORIGIN LEVEL: 428861 DIFFERENT FILL-ORIGIN LEVEL: 0
LLC AVERAGE MISS LATENCY: 150.563 cycles
LLC AVERAGE MISS LATENCY LOAD: 176.824 cycles
LLC AVERAGE MISS LATENCY PREFETCH: 182.847 cycles
LLC AVERAGE MSHR OCCUPANCY: 3.12746
LLC MSHR FULL: 0
LLC RQ	ACCESS:    8746474	FORWARD:          0	MERGED:          0	TO_CACHE:    8746359
LLC WQ	ACCESS:    6835846	FORWARD:        137	MERGED:          0	TO_CACHE:    6835846
LLC PQ	ACCESS:    7403016	FORWARD:          0	MERGED:       6302	TO_CACHE:    7396692

LLC Dense regions hint to LLC: 0

RAW hits: 2270235
Loads Generated: 70652983
Loads sent to L1D: 68382746
Stores Generated: 17802933
Stores sent to L1D: 17802933
Major fault: 0 Minor fault: 80635
Allocated PAGES: 80635
Total Load insts: 84736451
Total Non-spec loads: 17547187
Percentage of speculative loads: 79.292

LeapFrogging counter: 5285135
Commit hits: 33515233 miss: 18871077
Commit hit %: 63.9771 miss %: 36.0229
Commits not translated: 0
Loads retired: 13379835
Stores retired: 17802933
Cache fills: 13379835
L1D response latency: 69.1487 cycles
Load retirement latency: 202.385 cycles
OOO test counter: 0
Discarded buffer inserts: 33515233 hits: 33274 hit %: 0.0992802
Filter prediction accuracy: 99.7866
------------------
Depth Distribution
------------------
depth 0: 16345411
depth 1: 30265750
depth 2: 30689538
depth 3: 4020093
depth 4: 1146185
depth 5: 1753308
depth 6: 1673365
depth 7: 1697881
depth 8: 614332
depth 9: 154145
depth 10: 11481
depth 11: 102
depth 12: 38
depth 13: 28
depth 14: 27
depth 15: 19
depth 16: 11
depth 17: 2
depth 18: 4
depth 19: 3
depth 20: 1
depth 21: 0
depth 22: 0
depth 23: 0
depth 24: 0
depth 25: 0
depth 26: 0
depth 27: 0
depth 28: 0
depth 29: 0
Total: 88371724
------------------
ST read accesses: 66151075
ST write accesses: 4501920
PT read accesses: 1007387545
PT write accesses: 55380419
FILTER read accesses: 286542760
FILTER write accesses: 60408403
GHR read accesses: 101012513
GHR write accesses: 9868777
PERC read accesses: 6809057964
PERC write accesses: 102724705
GHR counter read accesses: 141305990
GHR counter write accesses: 90989521
GHR ip read accesses: 291962418
GHR ip write accesses: 282611980
ST tag read accesses: 28697250948
ST tag write accesses: 1749684270

DRAM Statistics
 CHANNEL 0
 RQ ROW_BUFFER_HIT:    1404072  ROW_BUFFER_MISS:    5897725
 DBUS_CONGESTED:       6822
 WQ ROW_BUFFER_HIT:     762482  ROW_BUFFER_MISS:    2553829  FULL:          0

 AVG_CONGESTED_CYCLE: 5
 All warmup complete: 2
Channel 0 Bank busy for read cycles: 0
Channel 0 Bank busy for write cycles: 0
Channel 0
Rank 0
0banks busy for read cycles: 299267469
0banks busy for write cycles: 146875
1banks busy for read cycles: 105999752
1banks busy for write cycles: 21772750
2banks busy for read cycles: 83126773
2banks busy for write cycles: 6190681
3banks busy for read cycles: 58682825
3banks busy for write cycles: 5174814
4banks busy for read cycles: 39862847
4banks busy for write cycles: 5674255
5banks busy for read cycles: 24916968
5banks busy for write cycles: 6814061
6banks busy for read cycles: 14555396
6banks busy for write cycles: 9295443
7banks busy for read cycles: 9455919
7banks busy for write cycles: 17583971
8banks busy for read cycles: 9471149
8banks busy for write cycles: 61906018

CPU 0 Branch Prediction Accuracy: 94.5902% MPKI: 13.9808 Average ROB Occupancy at Mispredict: 26.2361
Branch types
NOT_BRANCH: 148312419 74.1562%
BRANCH_DIRECT_JUMP: 5836928 2.91846%
BRANCH_INDIRECT: 0 0%
BRANCH_CONDITIONAL: 38055866 19.0279%
BRANCH_DIRECT_CALL: 3647058 1.82353%
BRANCH_INDIRECT_CALL: 250202 0.125101%
BRANCH_RETURN: 3897263 1.94863%
BRANCH_OTHER: 0 0%

DRAM PAGES: 1048576
Allocated PAGES: 80635
