Initialize SIGNATURE TABLE
ST_SET: 1
ST_WAY: 256
ST_TAG_BIT: 16
ST_TAG_MASK: ffff

Initialize PATTERN TABLE
PT_SET: 512
PT_WAY: 4
SIG_DELTA_BIT: 7
C_SIG_BIT: 4
C_DELTA_BIT: 4

Initialize PREFETCH FILTER
FILTER_SET: 1024

Initialize PERCEPTRON
PERC_ENTRIES: 4096
PERC_FEATURES: 9

*** ChampSim Multicore Out-of-Order Simulator ***

Warmup Instructions: 50000000
Simulation Instructions: 200000000
Number of CPUs: 1
LLC sets: 2048
LLC ways: 16
L0D sets: 16
L0D ways: 2
ROB size: 352
LQ size: 128
SQ size: 72
Secure Berti: OFF
Berti: OFF
Berti Fill: OFF
On commit prefetching: ON
Hit-based filter: ON
Time-guarding: ON
Free-slotting: ON
Leap-frogging: ON
Train prefetcher on L0D bypass: OFF
No translation penalty for prefetchers: OFF
Prefetch to L0D only: OFF
Prefetch to L1D only: OFF
Clean evictions: ON
Commit loads: ON
Commit write: ON
Fill commit loads to L2C, LLC: ON
DRAM IO FREQUENCY: 6400
ROB SIZE: 352
Off-chip DRAM Size: 4096 MB Channels: 1 Width: 64-bit Data Rate: 6400 MT/s
CPU 0 runs /home/sumon/secure_berti/GhostMinion/../../traces/spec/605.mcf_s-1554B.champsimtrace.xz
.xz
BTB has LRU replacement policy
ITLB has LRU replacement policy
DTLB has LRU replacement policy
STLB has LRU replacement policy
L1I has LRU replacement policy
L0D has LRU replacement policy
L1D has LRU replacement policy
PERC_ENTRIES: 4096
L2C has LRU replacement policy
LLC has LRU replacement policy
Heartbeat CPU 0 instructions: 10000001 cycles: 4303942 heartbeat IPC: 2.32345 cumulative IPC: 2.32345 (Simulation time: 0 hr 0 min 55 sec) 
Heartbeat CPU 0 instructions: 20000001 cycles: 8625763 heartbeat IPC: 2.31384 cumulative IPC: 2.31864 (Simulation time: 0 hr 1 min 50 sec) 
Heartbeat CPU 0 instructions: 30000000 cycles: 12964548 heartbeat IPC: 2.30479 cumulative IPC: 2.314 (Simulation time: 0 hr 2 min 47 sec) 
Heartbeat CPU 0 instructions: 40000001 cycles: 17289744 heartbeat IPC: 2.31203 cumulative IPC: 2.31351 (Simulation time: 0 hr 3 min 45 sec) 
Heartbeat CPU 0 instructions: 50000001 cycles: 21614296 heartbeat IPC: 2.31238 cumulative IPC: 2.31328 (Simulation time: 0 hr 4 min 43 sec) 

Warmup complete CPU 0 instructions: 50000001 cycles: 21614296 (Simulation time: 0 hr 4 min 43 sec) 

Heartbeat CPU 0 instructions: 60000002 cycles: 66902243 heartbeat IPC: 0.220809 cumulative IPC: 0.220809 (Simulation time: 0 hr 6 min 27 sec) 
Heartbeat CPU 0 instructions: 70000002 cycles: 112208620 heartbeat IPC: 0.220719 cumulative IPC: 0.220764 (Simulation time: 0 hr 8 min 12 sec) 
Heartbeat CPU 0 instructions: 80000000 cycles: 157994042 heartbeat IPC: 0.21841 cumulative IPC: 0.219974 (Simulation time: 0 hr 9 min 58 sec) 
Heartbeat CPU 0 instructions: 90000003 cycles: 203657949 heartbeat IPC: 0.218991 cumulative IPC: 0.219728 (Simulation time: 0 hr 11 min 45 sec) 
Heartbeat CPU 0 instructions: 100000001 cycles: 249363631 heartbeat IPC: 0.218791 cumulative IPC: 0.21954 (Simulation time: 0 hr 13 min 33 sec) 
Heartbeat CPU 0 instructions: 110000000 cycles: 295455476 heartbeat IPC: 0.216958 cumulative IPC: 0.219105 (Simulation time: 0 hr 15 min 16 sec) 
Heartbeat CPU 0 instructions: 120000001 cycles: 342272200 heartbeat IPC: 0.213599 cumulative IPC: 0.218301 (Simulation time: 0 hr 16 min 57 sec) 
Heartbeat CPU 0 instructions: 130000000 cycles: 388803213 heartbeat IPC: 0.21491 cumulative IPC: 0.217872 (Simulation time: 0 hr 18 min 29 sec) 
Heartbeat CPU 0 instructions: 140000000 cycles: 436088207 heartbeat IPC: 0.211484 cumulative IPC: 0.217143 (Simulation time: 0 hr 19 min 58 sec) 
Heartbeat CPU 0 instructions: 150000001 cycles: 483497634 heartbeat IPC: 0.210929 cumulative IPC: 0.216505 (Simulation time: 0 hr 21 min 26 sec) 
Heartbeat CPU 0 instructions: 160000000 cycles: 531502622 heartbeat IPC: 0.208312 cumulative IPC: 0.215734 (Simulation time: 0 hr 22 min 55 sec) 
Heartbeat CPU 0 instructions: 170000003 cycles: 579598716 heartbeat IPC: 0.207917 cumulative IPC: 0.21506 (Simulation time: 0 hr 24 min 23 sec) 
Heartbeat CPU 0 instructions: 180000001 cycles: 627827992 heartbeat IPC: 0.207343 cumulative IPC: 0.214446 (Simulation time: 0 hr 25 min 50 sec) 
Heartbeat CPU 0 instructions: 190000001 cycles: 675578972 heartbeat IPC: 0.20942 cumulative IPC: 0.214079 (Simulation time: 0 hr 27 min 15 sec) 
Heartbeat CPU 0 instructions: 200000002 cycles: 724490022 heartbeat IPC: 0.204453 cumulative IPC: 0.213409 (Simulation time: 0 hr 28 min 41 sec) 
Heartbeat CPU 0 instructions: 210000000 cycles: 771731632 heartbeat IPC: 0.211678 cumulative IPC: 0.2133 (Simulation time: 0 hr 30 min 4 sec) 
Heartbeat CPU 0 instructions: 220000000 cycles: 819074013 heartbeat IPC: 0.211227 cumulative IPC: 0.213177 (Simulation time: 0 hr 31 min 27 sec) 
Heartbeat CPU 0 instructions: 230000002 cycles: 868177479 heartbeat IPC: 0.203652 cumulative IPC: 0.212624 (Simulation time: 0 hr 32 min 53 sec) 
Heartbeat CPU 0 instructions: 240000001 cycles: 915455788 heartbeat IPC: 0.211513 cumulative IPC: 0.212566 (Simulation time: 0 hr 34 min 16 sec) 
Heartbeat CPU 0 instructions: 250000001 cycles: 963422295 heartbeat IPC: 0.208479 cumulative IPC: 0.212358 (Simulation time: 0 hr 35 min 40 sec) 
Finished CPU 0 instructions: 200000000 cycles: 941807999 cumulative IPC: 0.212358 (Simulation time: 0 hr 35 min 40 sec) 
 Instruction ID: 250000327

ChampSim completed all CPUs

Region of Interest Statistics

CPU 0 cumulative IPC: 0.212358 instructions: 200000000 cycles: 941807999
ITLB SPEC fills:          0  NON-SPEC fills:          0
ITLB Test counter :          0
ITLB Leapfrog:          0
ITLB MSHR merge:          0
ITLB TOTAL     ACCESS:   42546283  HIT:   42546283  MISS:          0  HIT %:        100  MISS %:          0   MPKI: 0
ITLB LOAD TRANSLATION NON_SPEC    ACCESS:   42546283  HIT:   42546283  MISS:          0  HIT %:        100  MISS %:          0   MPKI: 0
ITLB PREFETCH  REQUESTED:          0  ISSUED:          0  USEFUL:          0  USELESS:          0
ITLB USEFUL LOAD PREFETCHES:          0 PREFETCH ISSUED TO LOWER LEVEL:          0  ACCURACY: -nan
ITLB TIMELY PREFETCHES:          0 LATE PREFETCHES: 0 DROPPED PREFETCHES: 0
ITLB COMMIT LATE PREFETCHES: 0 MISSED OPPORTUNITY: 0 LATE IN PQ: 0 UNCOVERED: 0
ITLB COMMIT LATE MSHR PREFETCHES: 0
ITLB MPKI TOTAL: 0 MSHR LATE: 0 PQ LATE: 0 COMMIT LATE: 0 MISSED OPPORTUNITY: 0 UNCOVERED: 0
ITLB PREFETCHES SAME FILL-ORIGIN LEVEL: 0 DIFFERENT FILL-ORIGIN LEVEL: 0
ITLB AVERAGE MISS LATENCY: -nan cycles
ITLB AVERAGE MISS LATENCY LOAD: -nan cycles
ITLB AVERAGE MISS LATENCY PREFETCH: -nan cycles
ITLB AVERAGE MSHR OCCUPANCY: 0
ITLB MSHR FULL: 0
ITLB RQ	ACCESS:   51651239	FORWARD:          0	MERGED:    9104956	TO_CACHE:   42546283

DTLB SPEC fills:          0  NON-SPEC fills:          0
DTLB Test counter :          0
DTLB Leapfrog:          0
DTLB MSHR merge:          0
DTLB TOTAL     ACCESS:   67655700  HIT:   66855075  MISS:     800625  HIT %:    98.8166  MISS %:    1.18338   MPKI: 4.00312
DTLB LOAD TRANSLATION NON_SPEC    ACCESS:   67655700  HIT:   66855075  MISS:     800625  HIT %:    98.8166  MISS %:    1.18338   MPKI: 4.00312
DTLB PREFETCH  REQUESTED:          0  ISSUED:          0  USEFUL:          0  USELESS:          0
DTLB USEFUL LOAD PREFETCHES:          0 PREFETCH ISSUED TO LOWER LEVEL:          0  ACCURACY: -nan
DTLB TIMELY PREFETCHES:          0 LATE PREFETCHES: 0 DROPPED PREFETCHES: 0
DTLB COMMIT LATE PREFETCHES: 0 MISSED OPPORTUNITY: 0 LATE IN PQ: 0 UNCOVERED: 0
DTLB COMMIT LATE MSHR PREFETCHES: 0
DTLB MPKI TOTAL: 0 MSHR LATE: 0 PQ LATE: 0 COMMIT LATE: 0 MISSED OPPORTUNITY: 0 UNCOVERED: 0
DTLB PREFETCHES SAME FILL-ORIGIN LEVEL: 0 DIFFERENT FILL-ORIGIN LEVEL: 0
DTLB AVERAGE MISS LATENCY: 13.8646 cycles
DTLB AVERAGE MISS LATENCY LOAD: -nan cycles
DTLB AVERAGE MISS LATENCY PREFETCH: -nan cycles
DTLB AVERAGE MSHR OCCUPANCY: 0.0172478
DTLB MSHR FULL: 0
DTLB RQ	ACCESS:   84359428	FORWARD:          0	MERGED:   16675041	TO_CACHE:   67684387

STLB SPEC fills:          0  NON-SPEC fills:          0
STLB Test counter :          0
STLB Leapfrog:          0
STLB MSHR merge:          0
STLB TOTAL     ACCESS:     800625  HIT:     788357  MISS:      12268  HIT %:    98.4677  MISS %:     1.5323   MPKI: 0.06134
STLB LOAD TRANSLATION NON_SPEC    ACCESS:     800625  HIT:     788357  MISS:      12268  HIT %:    98.4677  MISS %:     1.5323   MPKI: 0.06134
STLB PREFETCH  REQUESTED:          0  ISSUED:          0  USEFUL:          0  USELESS:          0
STLB USEFUL LOAD PREFETCHES:          0 PREFETCH ISSUED TO LOWER LEVEL:          0  ACCURACY: -nan
STLB TIMELY PREFETCHES:          0 LATE PREFETCHES: 0 DROPPED PREFETCHES: 0
STLB COMMIT LATE PREFETCHES: 0 MISSED OPPORTUNITY: 0 LATE IN PQ: 0 UNCOVERED: 0
STLB COMMIT LATE MSHR PREFETCHES: 0
STLB MPKI TOTAL: 0 MSHR LATE: 0 PQ LATE: 0 COMMIT LATE: 0 MISSED OPPORTUNITY: 0 UNCOVERED: 0
STLB PREFETCHES SAME FILL-ORIGIN LEVEL: 0 DIFFERENT FILL-ORIGIN LEVEL: 0
STLB AVERAGE MISS LATENCY: 316.477 cycles
STLB AVERAGE MISS LATENCY LOAD: -nan cycles
STLB AVERAGE MISS LATENCY PREFETCH: -nan cycles
STLB AVERAGE MSHR OCCUPANCY: 0.00324871
STLB MSHR FULL: 0
STLB RQ	ACCESS:     800625	FORWARD:          0	MERGED:          0	TO_CACHE:     800625

STLB Hit, L1D data hit: 0
STLB Hit, L2C data hit: 0
STLB Hit, LLC data hit: 0
STLB Hit, LLC data miss: 0
STLB STLB hints to L2: 0
L0D SPEC fills:   42409794  NON-SPEC fills:          0
L0D TimeGuard Request with older TS:    2587950 Restricted eviction:     889835 read:    2545108
L0D Test counter :          0
L0D Leapfrog:          0
L0D MSHR merge:    3482948
L0D TOTAL     ACCESS:   67357782  HIT:   15731784  MISS:   51625998  HIT %:    23.3556  MISS %:    76.6444   MPKI: 258.13
L0D LOAD      TOTAL       ACCESS:   67357782  HIT:   15731784  MISS:   51625998  HIT %:    23.3556  MISS %:    76.6444   MPKI: 258.13
L0D LOAD      NON_SPEC    ACCESS:    8824035  HIT:     497666  MISS:    8326369  HIT %:    5.63989  MISS %:    94.3601   MPKI: 41.6318
L0D LOAD      SPEC        ACCESS:   58533747  HIT:   15234118  MISS:   43299629  HIT %:    26.0262  MISS %:    73.9738   MPKI: 216.498
L0D PREFETCH  REQUESTED:          0  ISSUED:          0  USEFUL:          0  USELESS:          0
L0D USEFUL LOAD PREFETCHES:          0 PREFETCH ISSUED TO LOWER LEVEL:          0  ACCURACY: -nan
L0D TIMELY PREFETCHES:          0 LATE PREFETCHES: 0 DROPPED PREFETCHES: 0
L0D COMMIT LATE PREFETCHES: 0 MISSED OPPORTUNITY: 0 LATE IN PQ: 0 UNCOVERED: 0
L0D COMMIT LATE MSHR PREFETCHES: 0
L0D MPKI TOTAL: 275.545 MSHR LATE: 0 PQ LATE: 0 COMMIT LATE: 0 MISSED OPPORTUNITY: 0 UNCOVERED: 0
L0D PREFETCHES SAME FILL-ORIGIN LEVEL: 0 DIFFERENT FILL-ORIGIN LEVEL: 0
L0D AVERAGE MISS LATENCY: 67.0797 cycles
L0D AVERAGE MISS LATENCY LOAD: 67.0797 cycles
L0D AVERAGE MISS LATENCY PREFETCH: -nan cycles
L0D AVERAGE MSHR OCCUPANCY: 4.18857
L0D MSHR FULL: 0.173598
L0D RQ	ACCESS:   83199485	FORWARD:          0	MERGED:   12358759	TO_CACHE:   70840726
L0D WQ	ACCESS:   13518702	FORWARD:          0	MERGED:          0	TO_CACHE:   13518702

L1D SPEC fills:          0  NON-SPEC fills:    3937315
L1D Test counter :          0
L1D Leapfrog:          0
L1D MSHR merge:      33394
L1D TOTAL     ACCESS:   95561119  HIT:   35430335  MISS:   60130784  HIT %:    37.0761  MISS %:    62.9239   MPKI: 300.654
L1D LOAD      TOTAL       ACCESS:   51592604  HIT:   18739932  MISS:   32852672  HIT %:    36.3229  MISS %:    63.6771   MPKI: 164.263
L1D LOAD      NON_SPEC    ACCESS:    8316206  HIT:    4378891  MISS:    3937315  HIT %:    52.6549  MISS %:    47.3451   MPKI: 19.6866
L1D LOAD      SPEC        ACCESS:   43276398  HIT:   14361041  MISS:   28915357  HIT %:    33.1845  MISS %:    66.8155   MPKI: 144.577
L1D RFO       NON_SPEC    ACCESS:    9811045  HIT:    9396144  MISS:     414901  HIT %:    95.7711  MISS %:    4.22892   MPKI: 2.0745
L1D COMMIT LOAD NON_SPEC    ACCESS:    6772055  HIT:    5579684  MISS:    1192371  HIT %:    82.3928  MISS %:    17.6072   MPKI: 5.96185
L1D COMMIT WRITE NON_SPEC    ACCESS:   27385415  HIT:    1714575  MISS:   25670840  HIT %:    6.26091  MISS %:    93.7391   MPKI: 128.354
L1D PREFETCH  REQUESTED:          0  ISSUED:          0  USEFUL:          0  USELESS:          0
L1D USEFUL LOAD PREFETCHES:          0 PREFETCH ISSUED TO LOWER LEVEL:          0  ACCURACY: -nan
L1D TIMELY PREFETCHES:          0 LATE PREFETCHES: 0 DROPPED PREFETCHES: 0
L1D COMMIT LATE PREFETCHES: 0 MISSED OPPORTUNITY: 0 LATE IN PQ: 0 UNCOVERED: 0
L1D COMMIT LATE MSHR PREFETCHES: 0
L1D MPKI TOTAL: 164.43 MSHR LATE: 0 PQ LATE: 0 COMMIT LATE: 0 MISSED OPPORTUNITY: 0 UNCOVERED: 0
L1D PREFETCHES SAME FILL-ORIGIN LEVEL: 0 DIFFERENT FILL-ORIGIN LEVEL: 0
L1D AVERAGE MISS LATENCY: 56.1146 cycles
L1D AVERAGE MISS LATENCY LOAD: 95.55 cycles
L1D AVERAGE MISS LATENCY PREFETCH: -nan cycles
L1D AVERAGE MSHR OCCUPANCY: 2.93053
L1D MSHR FULL: 0
L1D RQ	ACCESS:   58906945	FORWARD:          0	MERGED:     411087	TO_CACHE:   58483928
L1D WQ	ACCESS:   40904119	FORWARD:      11930	MERGED:    2195672	TO_CACHE:   38708447

L1D UNIQUE REGIONS ACCESSED: 0
L1D REGIONS CONFLICTS: 0
L1D Cross Page Prefetch Requests: 0
L1D Same Page Prefetch Requests: 0
L1D ROI Sum of L1D PQ occupancy: 0
L1D PREFETCHES PUSHED FROM L2C: 0
L1I SPEC fills:          0  NON-SPEC fills:          0
L1I Test counter :          0
L1I Leapfrog:          0
L1I MSHR merge:          0
L1I TOTAL     ACCESS:   51651237  HIT:   51651237  MISS:          0  HIT %:        100  MISS %:          0   MPKI: 0
L1I LOAD      TOTAL       ACCESS:   51651237  HIT:   51651237  MISS:          0  HIT %:        100  MISS %:          0   MPKI: 0
L1I LOAD      NON_SPEC    ACCESS:   51651237  HIT:   51651237  MISS:          0  HIT %:        100  MISS %:          0   MPKI: 0
L1I PREFETCH  REQUESTED:          0  ISSUED:          0  USEFUL:          0  USELESS:          0
L1I USEFUL LOAD PREFETCHES:          0 PREFETCH ISSUED TO LOWER LEVEL:          0  ACCURACY: -nan
L1I TIMELY PREFETCHES:          0 LATE PREFETCHES: 0 DROPPED PREFETCHES: 0
L1I COMMIT LATE PREFETCHES: 0 MISSED OPPORTUNITY: 0 LATE IN PQ: 0 UNCOVERED: 0
L1I COMMIT LATE MSHR PREFETCHES: 0
L1I MPKI TOTAL: 0 MSHR LATE: 0 PQ LATE: 0 COMMIT LATE: 0 MISSED OPPORTUNITY: 0 UNCOVERED: 0
L1I PREFETCHES SAME FILL-ORIGIN LEVEL: 0 DIFFERENT FILL-ORIGIN LEVEL: 0
L1I AVERAGE MISS LATENCY: -nan cycles
L1I AVERAGE MISS LATENCY LOAD: -nan cycles
L1I AVERAGE MISS LATENCY PREFETCH: -nan cycles
L1I AVERAGE MSHR OCCUPANCY: 0
L1I MSHR FULL: 0
L1I RQ	ACCESS:   71746338	FORWARD:          0	MERGED:   20095099	TO_CACHE:   51651239

BTB SPEC fills:          0  NON-SPEC fills:          0
BTB Test counter :          0
BTB Leapfrog:          0
BTB MSHR merge:          0
BTB TOTAL     ACCESS:   35943467  HIT:   35943435  MISS:         32  HIT %:    99.9999  MISS %: 8.90287e-05   MPKI: 0.00016
BTB BRANCH_DIRECT_JUMP	ACCESS:    8413976  HIT:    8413970  MISS:          6
BTB BRANCH_INDIRECT	ACCESS:          0  HIT:          0  MISS:          0
BTB BRANCH_CONDITIONAL	ACCESS:   27526335  HIT:   27526313  MISS:         22
BTB BRANCH_DIRECT_CALL	ACCESS:       1578  HIT:       1576  MISS:          2
BTB BRANCH_INDIRECT_CALL	ACCESS:          0  HIT:          0  MISS:          0
BTB BRANCH_RETURN	ACCESS:       1578  HIT:       1576  MISS:          2
BTB BRANCH_OTHER ACCESS:          0  HIT:          0  MISS:          0

L2C SPEC fills:          0  NON-SPEC fills:     791814
L2C Test counter :          0
L2C Leapfrog:          0
L2C MSHR merge:    6273184
L2C TOTAL     ACCESS:   74175240  HIT:   27561579  MISS:   46613661  HIT %:    37.1574  MISS %:    62.8426   MPKI: 233.068
L2C LOAD      TOTAL       ACCESS:   32847113  HIT:   19493314  MISS:   13353799  HIT %:    59.3456  MISS %:    40.6544   MPKI: 66.769
L2C LOAD      NON_SPEC    ACCESS:    3937299  HIT:    3145485  MISS:     791814  HIT %:    79.8894  MISS %:    20.1106   MPKI: 3.95907
L2C LOAD      SPEC        ACCESS:   28909814  HIT:   16347829  MISS:   12561985  HIT %:    56.5477  MISS %:    43.4523   MPKI: 62.8099
L2C RFO       NON_SPEC    ACCESS:     414899  HIT:      10018  MISS:     404881  HIT %:    2.41456  MISS %:    97.5854   MPKI: 2.0244
L2C PREFETCH  NON_SPEC    ACCESS:   26263812  HIT:    2625033  MISS:   23638779  HIT %:    9.99487  MISS %:    90.0051   MPKI: 118.194
L2C WRITEBACK NON_SPEC    ACCESS:     473576  HIT:     473390  MISS:        186  HIT %:    99.9607  MISS %:  0.0392756   MPKI: 0.00093
L2C CLEAN_EVICTION NON_SPEC    ACCESS:   12922154  HIT:    4110575  MISS:    8811579  HIT %:    31.8103  MISS %:    68.1897   MPKI: 44.0579
L2C COMMIT LOAD NON_SPEC    ACCESS:    1192371  HIT:     792921  MISS:     399450  HIT %:    66.4995  MISS %:    33.5005   MPKI: 1.99725
L2C LOAD TRANSLATION NON_SPEC    ACCESS:      61315  HIT:      56328  MISS:       4987  HIT %:    91.8666  MISS %:    8.13341   MPKI: 0.024935
L2C PREFETCH  REQUESTED:   37479807  ISSUED:   37473399  USEFUL:   17924371  USELESS:    5714407
L2C USEFUL LOAD PREFETCHES:   17924371 PREFETCH ISSUED TO LOWER LEVEL:   30120059  ACCURACY: 59.5097
L2C TIMELY PREFETCHES:   17924371 LATE PREFETCHES: 6455479 DROPPED PREFETCHES: 0
L2C COMMIT LATE PREFETCHES: 0 MISSED OPPORTUNITY: 0 LATE IN PQ: 0 UNCOVERED: 0
L2C COMMIT LATE MSHR PREFETCHES: 0
L2C MPKI TOTAL: 66.769 MSHR LATE: 32.2774 PQ LATE: 0 COMMIT LATE: 0 MISSED OPPORTUNITY: 0 UNCOVERED: 0
L2C PREFETCHES SAME FILL-ORIGIN LEVEL: 30094265 DIFFERENT FILL-ORIGIN LEVEL: 25794
L2C AVERAGE MISS LATENCY: 199.553 cycles
L2C AVERAGE MISS LATENCY LOAD: 211.277 cycles
L2C AVERAGE MISS LATENCY PREFETCH: 265.085 cycles
L2C AVERAGE MSHR OCCUPANCY: 10.0828
L2C MSHR FULL: 0.00230794
L2C RQ	ACCESS:   34521260	FORWARD:          0	MERGED:          0	TO_CACHE:   34515699
L2C WQ	ACCESS:   13395732	FORWARD:       5632	MERGED:          0	TO_CACHE:   13395732
L2C PQ	ACCESS:   37473399	FORWARD:          0	MERGED:    1067750	TO_CACHE:   36405578

L2C Instructions Evicting Data 0
L2C Translations Evicting Data 4987
L2C Data Evicting Data 25230983
L2C Instructions Evicting Instructions 0
L2C Translations Evicting Instructions 0
L2C Data Evicting Instructions 0
L2C Instructions Evicting Translations 0
L2C Translations Evicting Translations 0
L2C Data Evicting Translations 3941
L2C Dense regions hint from L2: 0
PSCL5 SPEC fills:          0  NON-SPEC fills:          0
PSCL5 Test counter :          0
PSCL5 Leapfrog:          0
PSCL5 MSHR merge:          0
PSCL5 TOTAL     ACCESS:          0  HIT:          0  MISS:          0  HIT %:       -nan  MISS %:       -nan   MPKI: 0
PSCL5 PREFETCH  REQUESTED:          0  ISSUED:          0  USEFUL:          0  USELESS:          0
PSCL5 USEFUL LOAD PREFETCHES:          0 PREFETCH ISSUED TO LOWER LEVEL:          0  ACCURACY: -nan
PSCL5 TIMELY PREFETCHES:          0 LATE PREFETCHES: 0 DROPPED PREFETCHES: 0
PSCL5 COMMIT LATE PREFETCHES: 0 MISSED OPPORTUNITY: 0 LATE IN PQ: 0 UNCOVERED: 0
PSCL5 COMMIT LATE MSHR PREFETCHES: 0
PSCL5 MPKI TOTAL: 0 MSHR LATE: 0 PQ LATE: 0 COMMIT LATE: 0 MISSED OPPORTUNITY: 0 UNCOVERED: 0
PSCL5 PREFETCHES SAME FILL-ORIGIN LEVEL: 0 DIFFERENT FILL-ORIGIN LEVEL: 0

PSCL4 SPEC fills:          0  NON-SPEC fills:          0
PSCL4 Test counter :          0
PSCL4 Leapfrog:          0
PSCL4 MSHR merge:          0
PSCL4 TOTAL     ACCESS:          0  HIT:          0  MISS:          0  HIT %:       -nan  MISS %:       -nan   MPKI: 0
PSCL4 PREFETCH  REQUESTED:          0  ISSUED:          0  USEFUL:          0  USELESS:          0
PSCL4 USEFUL LOAD PREFETCHES:          0 PREFETCH ISSUED TO LOWER LEVEL:          0  ACCURACY: -nan
PSCL4 TIMELY PREFETCHES:          0 LATE PREFETCHES: 0 DROPPED PREFETCHES: 0
PSCL4 COMMIT LATE PREFETCHES: 0 MISSED OPPORTUNITY: 0 LATE IN PQ: 0 UNCOVERED: 0
PSCL4 COMMIT LATE MSHR PREFETCHES: 0
PSCL4 MPKI TOTAL: 0 MSHR LATE: 0 PQ LATE: 0 COMMIT LATE: 0 MISSED OPPORTUNITY: 0 UNCOVERED: 0
PSCL4 PREFETCHES SAME FILL-ORIGIN LEVEL: 0 DIFFERENT FILL-ORIGIN LEVEL: 0

PSCL3 SPEC fills:          0  NON-SPEC fills:          0
PSCL3 Test counter :          0
PSCL3 Leapfrog:          0
PSCL3 MSHR merge:          0
PSCL3 TOTAL     ACCESS:          0  HIT:          0  MISS:          0  HIT %:       -nan  MISS %:       -nan   MPKI: 0
PSCL3 PREFETCH  REQUESTED:          0  ISSUED:          0  USEFUL:          0  USELESS:          0
PSCL3 USEFUL LOAD PREFETCHES:          0 PREFETCH ISSUED TO LOWER LEVEL:          0  ACCURACY: -nan
PSCL3 TIMELY PREFETCHES:          0 LATE PREFETCHES: 0 DROPPED PREFETCHES: 0
PSCL3 COMMIT LATE PREFETCHES: 0 MISSED OPPORTUNITY: 0 LATE IN PQ: 0 UNCOVERED: 0
PSCL3 COMMIT LATE MSHR PREFETCHES: 0
PSCL3 MPKI TOTAL: 0 MSHR LATE: 0 PQ LATE: 0 COMMIT LATE: 0 MISSED OPPORTUNITY: 0 UNCOVERED: 0
PSCL3 PREFETCHES SAME FILL-ORIGIN LEVEL: 0 DIFFERENT FILL-ORIGIN LEVEL: 0

PSCL2 SPEC fills:          0  NON-SPEC fills:          0
PSCL2 Test counter :          0
PSCL2 Leapfrog:          0
PSCL2 MSHR merge:          0
PSCL2 TOTAL     ACCESS:          0  HIT:          0  MISS:          0  HIT %:       -nan  MISS %:       -nan   MPKI: 0
PSCL2 PREFETCH  REQUESTED:          0  ISSUED:          0  USEFUL:          0  USELESS:          0
PSCL2 USEFUL LOAD PREFETCHES:          0 PREFETCH ISSUED TO LOWER LEVEL:          0  ACCURACY: -nan
PSCL2 TIMELY PREFETCHES:          0 LATE PREFETCHES: 0 DROPPED PREFETCHES: 0
PSCL2 COMMIT LATE PREFETCHES: 0 MISSED OPPORTUNITY: 0 LATE IN PQ: 0 UNCOVERED: 0
PSCL2 COMMIT LATE MSHR PREFETCHES: 0
PSCL2 MPKI TOTAL: 0 MSHR LATE: 0 PQ LATE: 0 COMMIT LATE: 0 MISSED OPPORTUNITY: 0 UNCOVERED: 0
PSCL2 PREFETCHES SAME FILL-ORIGIN LEVEL: 0 DIFFERENT FILL-ORIGIN LEVEL: 0

LLC SPEC fills:          0  NON-SPEC fills:     110901
LLC Test counter :          0
LLC Leapfrog:          0
LLC MSHR merge:          5
LLC TOTAL     ACCESS:   51203741  HIT:   14373918  MISS:   36829823  HIT %:     28.072  MISS %:     71.928   MPKI: 184.149
LLC LOAD      TOTAL       ACCESS:    7080615  HIT:    1415032  MISS:    5665583  HIT %:    19.9846  MISS %:    80.0154   MPKI: 28.3279
LLC LOAD      NON_SPEC    ACCESS:     136424  HIT:      25523  MISS:     110901  HIT %:    18.7086  MISS %:    81.2914   MPKI: 0.554505
LLC LOAD      SPEC        ACCESS:    6944191  HIT:    1389509  MISS:    5554682  HIT %:    20.0097  MISS %:    79.9903   MPKI: 27.7734
LLC RFO       NON_SPEC    ACCESS:     393350  HIT:         53  MISS:     393297  HIT %:   0.013474  MISS %:    99.9865   MPKI: 1.96649
LLC PREFETCH  NON_SPEC    ACCESS:   30119052  HIT:    2824387  MISS:   27294665  HIT %:    9.37741  MISS %:    90.6226   MPKI: 136.473
LLC WRITEBACK NON_SPEC    ACCESS:     471380  HIT:     470669  MISS:        711  HIT %:    99.8492  MISS %:   0.150834   MPKI: 0.003555
LLC CLEAN_EVICTION NON_SPEC    ACCESS:   12905671  HIT:    9514296  MISS:    3391375  HIT %:    73.7218  MISS %:    26.2782   MPKI: 16.9569
LLC COMMIT LOAD NON_SPEC    ACCESS:     228686  HIT:     149130  MISS:      79556  HIT %:    65.2117  MISS %:    34.7883   MPKI: 0.39778
LLC LOAD TRANSLATION NON_SPEC    ACCESS:       4987  HIT:        351  MISS:       4636  HIT %:     7.0383  MISS %:    92.9617   MPKI: 0.02318
LLC PREFETCH  REQUESTED:          0  ISSUED:          0  USEFUL:     699279  USELESS:   26596783
LLC USEFUL LOAD PREFETCHES:     699279 PREFETCH ISSUED TO LOWER LEVEL:   27294670  ACCURACY: 2.56196
LLC TIMELY PREFETCHES:     699279 LATE PREFETCHES: 5 DROPPED PREFETCHES: 0
LLC COMMIT LATE PREFETCHES: 0 MISSED OPPORTUNITY: 0 LATE IN PQ: 0 UNCOVERED: 0
LLC COMMIT LATE MSHR PREFETCHES: 0
LLC MPKI TOTAL: 28.3279 MSHR LATE: 2.5e-05 PQ LATE: 0 COMMIT LATE: 0 MISSED OPPORTUNITY: 0 UNCOVERED: 0
LLC PREFETCHES SAME FILL-ORIGIN LEVEL: 23238 DIFFERENT FILL-ORIGIN LEVEL: 0
LLC AVERAGE MISS LATENCY: 246.185 cycles
LLC AVERAGE MISS LATENCY LOAD: 238.833 cycles
LLC AVERAGE MISS LATENCY PREFETCH: 276.788 cycles
LLC AVERAGE MSHR OCCUPANCY: 8.37536
LLC MSHR FULL: 0
LLC RQ	ACCESS:    7707637	FORWARD:          0	MERGED:          0	TO_CACHE:    7707637
LLC WQ	ACCESS:   13377052	FORWARD:          0	MERGED:          0	TO_CACHE:   13377052
LLC PQ	ACCESS:   30120059	FORWARD:          0	MERGED:        321	TO_CACHE:   30119738

LLC Dense regions hint to LLC: 0

RAW hits: 8333470
Loads Generated: 91532960
Loads sent to L1D: 83199485
Stores Generated: 13518700
Stores sent to L1D: 13518702
Major fault: 0 Minor fault: 17320
Allocated PAGES: 17320
Total Load insts: 103497994
Total Non-spec loads: 9631243
Percentage of speculative loads: 90.6943

LeapFrogging counter: 8568968
Commit hits: 40146698 miss: 34185445
Commit hit %: 54.0099 miss %: 45.9901
Commits not translated: 0
Loads retired: 32852664
Stores retired: 13518702
Cache fills: 32852672
L1D response latency: 95.55 cycles
Load retirement latency: 257.803 cycles
OOO test counter: 0
Discarded buffer inserts: 40146698 hits: 66588 hit %: 0.165862
Filter prediction accuracy: 90.8408
------------------
Depth Distribution
------------------
depth 0: 51960351
depth 1: 19832
depth 2: 223383
depth 3: 1306911
depth 4: 1572013
depth 5: 1696125
depth 6: 3188875
depth 7: 8088237
depth 8: 10498432
depth 9: 20495447
depth 10: 10264723
depth 11: 4770487
depth 12: 35489
depth 13: 327
depth 14: 85
depth 15: 0
depth 16: 0
depth 17: 0
depth 18: 0
depth 19: 0
depth 20: 0
depth 21: 0
depth 22: 0
depth 23: 0
depth 24: 0
depth 25: 0
depth 26: 0
depth 27: 0
depth 28: 0
depth 29: 0
Total: 114120717
------------------
ST read accesses: 90741599
ST write accesses: 791367
PT read accesses: 2422838774
PT write accesses: 73848608
FILTER read accesses: 565948251
FILTER write accesses: 135121364
GHR read accesses: 208106984
GHR write accesses: 34525285
PERC read accesses: 17591207391
PERC write accesses: 325226227
GHR counter read accesses: 183065932
GHR counter write accesses: 160650009
GHR ip read accesses: 387644907
GHR ip write accesses: 366131864
ST tag read accesses: 32161669669
ST tag write accesses: 487887809

DRAM Statistics
 CHANNEL 0
 RQ ROW_BUFFER_HIT:   19326697  ROW_BUFFER_MISS:   14104393
 DBUS_CONGESTED:       4288
 WQ ROW_BUFFER_HIT:    1998519  ROW_BUFFER_MISS:   10393765  FULL:       1175

 AVG_CONGESTED_CYCLE: 5
 All warmup complete: 2
Channel 0 Bank busy for read cycles: 0
Channel 0 Bank busy for write cycles: 0
Channel 0
Rank 0
0banks busy for read cycles: 11038593
0banks busy for write cycles: 18219
1banks busy for read cycles: 34438378
1banks busy for write cycles: 3419951
2banks busy for read cycles: 51671314
2banks busy for write cycles: 2863958
3banks busy for read cycles: 67350871
3banks busy for write cycles: 2724333
4banks busy for read cycles: 81097854
4banks busy for write cycles: 2777272
5banks busy for read cycles: 91595937
5banks busy for write cycles: 2958112
6banks busy for read cycles: 99936683
6banks busy for write cycles: 4408984
7banks busy for read cycles: 108104394
7banks busy for write cycles: 31832747
8banks busy for read cycles: 96631111
8banks busy for write cycles: 248939289

CPU 0 Branch Prediction Accuracy: 98.8241% MPKI: 2.1554 Average ROB Occupancy at Mispredict: 68.0147
Branch types
NOT_BRANCH: 163339800 81.6699%
BRANCH_DIRECT_JUMP: 8413976 4.20699%
BRANCH_INDIRECT: 0 0%
BRANCH_CONDITIONAL: 28243012 14.1215%
BRANCH_DIRECT_CALL: 1578 0.000789%
BRANCH_INDIRECT_CALL: 0 0%
BRANCH_RETURN: 1578 0.000789%
BRANCH_OTHER: 0 0%

DRAM PAGES: 1048576
Allocated PAGES: 17320
