Initialize SIGNATURE TABLE
ST_SET: 1
ST_WAY: 256
ST_TAG_BIT: 16
ST_TAG_MASK: ffff

Initialize PATTERN TABLE
PT_SET: 512
PT_WAY: 4
SIG_DELTA_BIT: 7
C_SIG_BIT: 4
C_DELTA_BIT: 4

Initialize PREFETCH FILTER
FILTER_SET: 1024

Initialize PERCEPTRON
PERC_ENTRIES: 4096
PERC_FEATURES: 9

*** ChampSim Multicore Out-of-Order Simulator ***

Warmup Instructions: 50000000
Simulation Instructions: 200000000
Number of CPUs: 1
LLC sets: 2048
LLC ways: 16
L0D sets: 16
L0D ways: 2
ROB size: 352
LQ size: 128
SQ size: 72
Secure Berti: OFF
Berti: OFF
Berti Fill: OFF
On commit prefetching: ON
Hit-based filter: ON
Time-guarding: ON
Free-slotting: ON
Leap-frogging: ON
Train prefetcher on L0D bypass: OFF
No translation penalty for prefetchers: OFF
Prefetch to L0D only: OFF
Prefetch to L1D only: OFF
Clean evictions: ON
Commit loads: ON
Commit write: ON
Fill commit loads to L2C, LLC: ON
DRAM IO FREQUENCY: 6400
ROB SIZE: 352
Off-chip DRAM Size: 4096 MB Channels: 1 Width: 64-bit Data Rate: 6400 MT/s
CPU 0 runs /home/sumon/secure_berti/GhostMinion/../../traces/spec/607.cactuBSSN_s-4004B.champsimtrace.xz
.xz
BTB has LRU replacement policy
ITLB has LRU replacement policy
DTLB has LRU replacement policy
STLB has LRU replacement policy
L1I has LRU replacement policy
L0D has LRU replacement policy
L1D has LRU replacement policy
PERC_ENTRIES: 4096
L2C has LRU replacement policy
LLC has LRU replacement policy
Heartbeat CPU 0 instructions: 10000001 cycles: 4384842 heartbeat IPC: 2.28058 cumulative IPC: 2.28058 (Simulation time: 0 hr 0 min 46 sec) 
Heartbeat CPU 0 instructions: 20000002 cycles: 8766572 heartbeat IPC: 2.2822 cumulative IPC: 2.28139 (Simulation time: 0 hr 1 min 32 sec) 
Heartbeat CPU 0 instructions: 30000001 cycles: 13151185 heartbeat IPC: 2.2807 cumulative IPC: 2.28116 (Simulation time: 0 hr 2 min 18 sec) 
Heartbeat CPU 0 instructions: 40000000 cycles: 17525146 heartbeat IPC: 2.28626 cumulative IPC: 2.28243 (Simulation time: 0 hr 3 min 4 sec) 
Heartbeat CPU 0 instructions: 50000001 cycles: 21921920 heartbeat IPC: 2.27439 cumulative IPC: 2.28082 (Simulation time: 0 hr 3 min 49 sec) 

Warmup complete CPU 0 instructions: 50000001 cycles: 21921920 (Simulation time: 0 hr 3 min 49 sec) 

Heartbeat CPU 0 instructions: 60000001 cycles: 37337703 heartbeat IPC: 0.648686 cumulative IPC: 0.648686 (Simulation time: 0 hr 4 min 44 sec) 
Heartbeat CPU 0 instructions: 70000003 cycles: 52696158 heartbeat IPC: 0.651107 cumulative IPC: 0.649894 (Simulation time: 0 hr 5 min 40 sec) 
Heartbeat CPU 0 instructions: 80000003 cycles: 68260251 heartbeat IPC: 0.642505 cumulative IPC: 0.647412 (Simulation time: 0 hr 6 min 35 sec) 
Heartbeat CPU 0 instructions: 90000003 cycles: 83566232 heartbeat IPC: 0.653339 cumulative IPC: 0.648884 (Simulation time: 0 hr 7 min 30 sec) 
Heartbeat CPU 0 instructions: 100000000 cycles: 98851645 heartbeat IPC: 0.654218 cumulative IPC: 0.649944 (Simulation time: 0 hr 8 min 25 sec) 
Heartbeat CPU 0 instructions: 110000000 cycles: 114247369 heartbeat IPC: 0.649531 cumulative IPC: 0.649875 (Simulation time: 0 hr 9 min 20 sec) 
Heartbeat CPU 0 instructions: 120000001 cycles: 129594987 heartbeat IPC: 0.651567 cumulative IPC: 0.650116 (Simulation time: 0 hr 10 min 15 sec) 
Heartbeat CPU 0 instructions: 130000000 cycles: 144971104 heartbeat IPC: 0.650359 cumulative IPC: 0.650147 (Simulation time: 0 hr 11 min 11 sec) 
Heartbeat CPU 0 instructions: 140000001 cycles: 160405830 heartbeat IPC: 0.64789 cumulative IPC: 0.649895 (Simulation time: 0 hr 12 min 6 sec) 
Heartbeat CPU 0 instructions: 150000002 cycles: 175822357 heartbeat IPC: 0.648655 cumulative IPC: 0.649771 (Simulation time: 0 hr 13 min 1 sec) 
Heartbeat CPU 0 instructions: 160000002 cycles: 191209817 heartbeat IPC: 0.64988 cumulative IPC: 0.649781 (Simulation time: 0 hr 13 min 57 sec) 
Heartbeat CPU 0 instructions: 170000001 cycles: 206576317 heartbeat IPC: 0.650766 cumulative IPC: 0.649863 (Simulation time: 0 hr 14 min 51 sec) 
Heartbeat CPU 0 instructions: 180000001 cycles: 222047978 heartbeat IPC: 0.646343 cumulative IPC: 0.649591 (Simulation time: 0 hr 15 min 44 sec) 
Heartbeat CPU 0 instructions: 190000001 cycles: 237331648 heartbeat IPC: 0.654293 cumulative IPC: 0.649924 (Simulation time: 0 hr 16 min 36 sec) 
Heartbeat CPU 0 instructions: 200000003 cycles: 252637841 heartbeat IPC: 0.65333 cumulative IPC: 0.65015 (Simulation time: 0 hr 17 min 29 sec) 
Heartbeat CPU 0 instructions: 210000003 cycles: 268000614 heartbeat IPC: 0.650924 cumulative IPC: 0.650199 (Simulation time: 0 hr 18 min 20 sec) 
Heartbeat CPU 0 instructions: 220000000 cycles: 283317430 heartbeat IPC: 0.652877 cumulative IPC: 0.650355 (Simulation time: 0 hr 19 min 10 sec) 
Heartbeat CPU 0 instructions: 230000000 cycles: 298764785 heartbeat IPC: 0.64736 cumulative IPC: 0.650188 (Simulation time: 0 hr 20 min 0 sec) 
Heartbeat CPU 0 instructions: 240000001 cycles: 314169148 heartbeat IPC: 0.649167 cumulative IPC: 0.650135 (Simulation time: 0 hr 20 min 49 sec) 
Heartbeat CPU 0 instructions: 250000000 cycles: 329552344 heartbeat IPC: 0.65006 cumulative IPC: 0.650131 (Simulation time: 0 hr 21 min 39 sec) 
Finished CPU 0 instructions: 200000003 cycles: 307630425 cumulative IPC: 0.650131 (Simulation time: 0 hr 21 min 39 sec) 
 Instruction ID: 250000373

ChampSim completed all CPUs

Region of Interest Statistics

CPU 0 cumulative IPC: 0.650131 instructions: 200000003 cycles: 307630425
ITLB SPEC fills:          0  NON-SPEC fills:          0
ITLB Test counter :          0
ITLB Leapfrog:          0
ITLB MSHR merge:          0
ITLB TOTAL     ACCESS:   28675867  HIT:   28675867  MISS:          0  HIT %:        100  MISS %:          0   MPKI: 0
ITLB LOAD TRANSLATION NON_SPEC    ACCESS:   28675867  HIT:   28675867  MISS:          0  HIT %:        100  MISS %:          0   MPKI: 0
ITLB PREFETCH  REQUESTED:          0  ISSUED:          0  USEFUL:          0  USELESS:          0
ITLB USEFUL LOAD PREFETCHES:          0 PREFETCH ISSUED TO LOWER LEVEL:          0  ACCURACY: -nan
ITLB TIMELY PREFETCHES:          0 LATE PREFETCHES: 0 DROPPED PREFETCHES: 0
ITLB COMMIT LATE PREFETCHES: 0 MISSED OPPORTUNITY: 0 LATE IN PQ: 0 UNCOVERED: 0
ITLB COMMIT LATE MSHR PREFETCHES: 0
ITLB MPKI TOTAL: 0 MSHR LATE: 0 PQ LATE: 0 COMMIT LATE: 0 MISSED OPPORTUNITY: 0 UNCOVERED: 0
ITLB PREFETCHES SAME FILL-ORIGIN LEVEL: 0 DIFFERENT FILL-ORIGIN LEVEL: 0
ITLB AVERAGE MISS LATENCY: -nan cycles
ITLB AVERAGE MISS LATENCY LOAD: -nan cycles
ITLB AVERAGE MISS LATENCY PREFETCH: -nan cycles
ITLB AVERAGE MSHR OCCUPANCY: 0
ITLB MSHR FULL: 0
ITLB RQ	ACCESS:   34605227	FORWARD:          0	MERGED:    5929361	TO_CACHE:   28675866

DTLB SPEC fills:          0  NON-SPEC fills:          0
DTLB Test counter :          0
DTLB Leapfrog:          0
DTLB MSHR merge:          0
DTLB TOTAL     ACCESS:   57672415  HIT:   49948801  MISS:    7723614  HIT %:    86.6078  MISS %:    13.3922   MPKI: 38.6181
DTLB LOAD TRANSLATION NON_SPEC    ACCESS:   57672415  HIT:   49948801  MISS:    7723614  HIT %:    86.6078  MISS %:    13.3922   MPKI: 38.6181
DTLB PREFETCH  REQUESTED:          0  ISSUED:          0  USEFUL:          0  USELESS:          0
DTLB USEFUL LOAD PREFETCHES:          0 PREFETCH ISSUED TO LOWER LEVEL:          0  ACCURACY: -nan
DTLB TIMELY PREFETCHES:          0 LATE PREFETCHES: 0 DROPPED PREFETCHES: 0
DTLB COMMIT LATE PREFETCHES: 0 MISSED OPPORTUNITY: 0 LATE IN PQ: 0 UNCOVERED: 0
DTLB COMMIT LATE MSHR PREFETCHES: 0
DTLB MPKI TOTAL: 0 MSHR LATE: 0 PQ LATE: 0 COMMIT LATE: 0 MISSED OPPORTUNITY: 0 UNCOVERED: 0
DTLB PREFETCHES SAME FILL-ORIGIN LEVEL: 0 DIFFERENT FILL-ORIGIN LEVEL: 0
DTLB AVERAGE MISS LATENCY: 10.0786 cycles
DTLB AVERAGE MISS LATENCY LOAD: -nan cycles
DTLB AVERAGE MISS LATENCY PREFETCH: -nan cycles
DTLB AVERAGE MSHR OCCUPANCY: 0.919721
DTLB MSHR FULL: 0.0300176
DTLB RQ	ACCESS:   83554648	FORWARD:          0	MERGED:   24810686	TO_CACHE:   58743962

STLB SPEC fills:          0  NON-SPEC fills:          0
STLB Test counter :          0
STLB Leapfrog:          0
STLB MSHR merge:          0
STLB TOTAL     ACCESS:    7723614  HIT:    7715098  MISS:       8516  HIT %:    99.8897  MISS %:   0.110259   MPKI: 0.04258
STLB LOAD TRANSLATION NON_SPEC    ACCESS:    7723614  HIT:    7715098  MISS:       8516  HIT %:    99.8897  MISS %:   0.110259   MPKI: 0.04258
STLB PREFETCH  REQUESTED:          0  ISSUED:          0  USEFUL:          0  USELESS:          0
STLB USEFUL LOAD PREFETCHES:          0 PREFETCH ISSUED TO LOWER LEVEL:          0  ACCURACY: -nan
STLB TIMELY PREFETCHES:          0 LATE PREFETCHES: 0 DROPPED PREFETCHES: 0
STLB COMMIT LATE PREFETCHES: 0 MISSED OPPORTUNITY: 0 LATE IN PQ: 0 UNCOVERED: 0
STLB COMMIT LATE MSHR PREFETCHES: 0
STLB MPKI TOTAL: 0 MSHR LATE: 0 PQ LATE: 0 COMMIT LATE: 0 MISSED OPPORTUNITY: 0 UNCOVERED: 0
STLB PREFETCHES SAME FILL-ORIGIN LEVEL: 0 DIFFERENT FILL-ORIGIN LEVEL: 0
STLB AVERAGE MISS LATENCY: 666.378 cycles
STLB AVERAGE MISS LATENCY LOAD: -nan cycles
STLB AVERAGE MISS LATENCY PREFETCH: -nan cycles
STLB AVERAGE MSHR OCCUPANCY: 0.010731
STLB MSHR FULL: 0
STLB RQ	ACCESS:    7723614	FORWARD:          0	MERGED:          0	TO_CACHE:    7723614

STLB Hit, L1D data hit: 0
STLB Hit, L2C data hit: 0
STLB Hit, LLC data hit: 0
STLB Hit, LLC data miss: 0
STLB STLB hints to L2: 0
L0D SPEC fills:   46036989  NON-SPEC fills:          0
L0D TimeGuard Request with older TS:    2871269 Restricted eviction:    2769603 read:    2413928
L0D Test counter :          0
L0D Leapfrog:          0
L0D MSHR merge:    3100124
L0D TOTAL     ACCESS:   64241950  HIT:    9215939  MISS:   55026011  HIT %:    14.3457  MISS %:    85.6543   MPKI: 275.13
L0D LOAD      TOTAL       ACCESS:   64241950  HIT:    9215939  MISS:   55026011  HIT %:    14.3457  MISS %:    85.6543   MPKI: 275.13
L0D LOAD      NON_SPEC    ACCESS:    6568718  HIT:     349029  MISS:    6219689  HIT %:     5.3135  MISS %:    94.6865   MPKI: 31.0984
L0D LOAD      SPEC        ACCESS:   57673232  HIT:    8866910  MISS:   48806322  HIT %:    15.3744  MISS %:    84.6256   MPKI: 244.032
L0D PREFETCH  REQUESTED:          0  ISSUED:          0  USEFUL:          0  USELESS:          0
L0D USEFUL LOAD PREFETCHES:          0 PREFETCH ISSUED TO LOWER LEVEL:          0  ACCURACY: -nan
L0D TIMELY PREFETCHES:          0 LATE PREFETCHES: 0 DROPPED PREFETCHES: 0
L0D COMMIT LATE PREFETCHES: 0 MISSED OPPORTUNITY: 0 LATE IN PQ: 0 UNCOVERED: 0
L0D COMMIT LATE MSHR PREFETCHES: 0
L0D MPKI TOTAL: 290.631 MSHR LATE: 0 PQ LATE: 0 COMMIT LATE: 0 MISSED OPPORTUNITY: 0 UNCOVERED: 0
L0D PREFETCHES SAME FILL-ORIGIN LEVEL: 0 DIFFERENT FILL-ORIGIN LEVEL: 0
L0D AVERAGE MISS LATENCY: 13.3228 cycles
L0D AVERAGE MISS LATENCY LOAD: 13.3228 cycles
L0D AVERAGE MISS LATENCY PREFETCH: -nan cycles
L0D AVERAGE MSHR OCCUPANCY: 4.99669
L0D MSHR FULL: 0.386599
L0D RQ	ACCESS:   77807110	FORWARD:          0	MERGED:   10465044	TO_CACHE:   67342066
L0D WQ	ACCESS:   16212582	FORWARD:          0	MERGED:          0	TO_CACHE:   16212582

L1D SPEC fills:          0  NON-SPEC fills:     625946
L1D Test counter :          0
L1D Leapfrog:          0
L1D MSHR merge:      76777
L1D TOTAL     ACCESS:   87781706  HIT:   59136420  MISS:   28645286  HIT %:    67.3676  MISS %:    32.6324   MPKI: 143.226
L1D LOAD      TOTAL       ACCESS:   54949233  HIT:   40519290  MISS:   14429943  HIT %:    73.7395  MISS %:    26.2605   MPKI: 72.1497
L1D LOAD      NON_SPEC    ACCESS:    6207326  HIT:    5581380  MISS:     625946  HIT %:     89.916  MISS %:     10.084   MPKI: 3.12973
L1D LOAD      SPEC        ACCESS:   48741907  HIT:   34937910  MISS:   13803997  HIT %:    71.6794  MISS %:    28.3206   MPKI: 69.02
L1D RFO       NON_SPEC    ACCESS:   15958472  HIT:   14714589  MISS:    1243883  HIT %:    92.2055  MISS %:     7.7945   MPKI: 6.21941
L1D COMMIT LOAD NON_SPEC    ACCESS:    5880476  HIT:    3354514  MISS:    2525962  HIT %:    57.0449  MISS %:    42.9551   MPKI: 12.6298
L1D COMMIT WRITE NON_SPEC    ACCESS:   10993525  HIT:     548027  MISS:   10445498  HIT %:      4.985  MISS %:     95.015   MPKI: 52.2275
L1D PREFETCH  REQUESTED:          0  ISSUED:          0  USEFUL:          0  USELESS:          0
L1D USEFUL LOAD PREFETCHES:          0 PREFETCH ISSUED TO LOWER LEVEL:          0  ACCURACY: -nan
L1D TIMELY PREFETCHES:          0 LATE PREFETCHES: 0 DROPPED PREFETCHES: 0
L1D COMMIT LATE PREFETCHES: 0 MISSED OPPORTUNITY: 0 LATE IN PQ: 0 UNCOVERED: 0
L1D COMMIT LATE MSHR PREFETCHES: 0
L1D MPKI TOTAL: 72.5336 MSHR LATE: 0 PQ LATE: 0 COMMIT LATE: 0 MISSED OPPORTUNITY: 0 UNCOVERED: 0
L1D PREFETCHES SAME FILL-ORIGIN LEVEL: 0 DIFFERENT FILL-ORIGIN LEVEL: 0
L1D AVERAGE MISS LATENCY: 11.5483 cycles
L1D AVERAGE MISS LATENCY LOAD: 12.9257 cycles
L1D AVERAGE MISS LATENCY PREFETCH: -nan cycles
L1D AVERAGE MSHR OCCUPANCY: 3.22797
L1D MSHR FULL: 0.120451
L1D RQ	ACCESS:   62297875	FORWARD:          0	MERGED:    1262786	TO_CACHE:   61035089
L1D WQ	ACCESS:   27206108	FORWARD:          0	MERGED:     129143	TO_CACHE:   27076965

L1D UNIQUE REGIONS ACCESSED: 0
L1D REGIONS CONFLICTS: 0
L1D Cross Page Prefetch Requests: 0
L1D Same Page Prefetch Requests: 0
L1D ROI Sum of L1D PQ occupancy: 0
L1D PREFETCHES PUSHED FROM L2C: 0
L1I SPEC fills:          0  NON-SPEC fills:          0
L1I Test counter :          0
L1I Leapfrog:          0
L1I MSHR merge:    2613179
L1I TOTAL     ACCESS:   31992048  HIT:   26792038  MISS:    5200010  HIT %:    83.7459  MISS %:    16.2541   MPKI: 26
L1I LOAD      TOTAL       ACCESS:   31992048  HIT:   26792038  MISS:    5200010  HIT %:    83.7459  MISS %:    16.2541   MPKI: 26
L1I LOAD      NON_SPEC    ACCESS:   31992048  HIT:   26792038  MISS:    5200010  HIT %:    83.7459  MISS %:    16.2541   MPKI: 26
L1I PREFETCH  REQUESTED:          0  ISSUED:          0  USEFUL:          0  USELESS:          0
L1I USEFUL LOAD PREFETCHES:          0 PREFETCH ISSUED TO LOWER LEVEL:          0  ACCURACY: -nan
L1I TIMELY PREFETCHES:          0 LATE PREFETCHES: 0 DROPPED PREFETCHES: 0
L1I COMMIT LATE PREFETCHES: 0 MISSED OPPORTUNITY: 0 LATE IN PQ: 0 UNCOVERED: 0
L1I COMMIT LATE MSHR PREFETCHES: 0
L1I MPKI TOTAL: 39.0659 MSHR LATE: 0 PQ LATE: 0 COMMIT LATE: 0 MISSED OPPORTUNITY: 0 UNCOVERED: 0
L1I PREFETCHES SAME FILL-ORIGIN LEVEL: 0 DIFFERENT FILL-ORIGIN LEVEL: 0
L1I AVERAGE MISS LATENCY: 14.0478 cycles
L1I AVERAGE MISS LATENCY LOAD: 14.0478 cycles
L1I AVERAGE MISS LATENCY PREFETCH: -nan cycles
L1I AVERAGE MSHR OCCUPANCY: 0.205837
L1I MSHR FULL: 0
L1I RQ	ACCESS:   49588007	FORWARD:          0	MERGED:   14982780	TO_CACHE:   34605227

BTB SPEC fills:          0  NON-SPEC fills:          0
BTB Test counter :          0
BTB Leapfrog:          0
BTB MSHR merge:          0
BTB TOTAL     ACCESS:    1127062  HIT:    1054337  MISS:      72725  HIT %:    93.5474  MISS %:    6.45262   MPKI: 0.363625
BTB BRANCH_DIRECT_JUMP	ACCESS:     218098  HIT:     218093  MISS:          5
BTB BRANCH_INDIRECT	ACCESS:      36350  HIT:      36349  MISS:          1
BTB BRANCH_CONDITIONAL	ACCESS:     436418  HIT:     436406  MISS:         12
BTB BRANCH_DIRECT_CALL	ACCESS:     218098  HIT:     218093  MISS:          5
BTB BRANCH_INDIRECT_CALL	ACCESS:          0  HIT:          0  MISS:          0
BTB BRANCH_RETURN	ACCESS:     218098  HIT:     145396  MISS:      72702
BTB BRANCH_OTHER ACCESS:          0  HIT:          0  MISS:          0

L2C SPEC fills:          0  NON-SPEC fills:       5093
L2C Test counter :          0
L2C Leapfrog:          0
L2C MSHR merge:       1304
L2C TOTAL     ACCESS:   49908590  HIT:   48170894  MISS:    1737696  HIT %:    96.5182  MISS %:    3.48176   MPKI: 8.68848
L2C LOAD      TOTAL       ACCESS:   19625277  HIT:   19486078  MISS:     139199  HIT %:    99.2907  MISS %:   0.709284   MPKI: 0.695995
L2C LOAD      NON_SPEC    ACCESS:    5825592  HIT:    5818619  MISS:       6973  HIT %:    99.8803  MISS %:   0.119696   MPKI: 0.034865
L2C LOAD      SPEC        ACCESS:   13799685  HIT:   13667459  MISS:     132226  HIT %:    99.0418  MISS %:   0.958181   MPKI: 0.66113
L2C RFO       NON_SPEC    ACCESS:    1241825  HIT:    1123744  MISS:     118081  HIT %:    90.4913  MISS %:    9.50867   MPKI: 0.590405
L2C PREFETCH  NON_SPEC    ACCESS:   24546345  HIT:   23172330  MISS:    1374015  HIT %:    94.4024  MISS %:    5.59764   MPKI: 6.87007
L2C WRITEBACK NON_SPEC    ACCESS:    1258912  HIT:    1258721  MISS:        191  HIT %:    99.9848  MISS %:  0.0151718   MPKI: 0.000955
L2C CLEAN_EVICTION NON_SPEC    ACCESS:     667975  HIT:     594830  MISS:      73145  HIT %:    89.0497  MISS %:    10.9503   MPKI: 0.365725
L2C COMMIT LOAD NON_SPEC    ACCESS:    2525685  HIT:    2507681  MISS:      18004  HIT %:    99.2872  MISS %:   0.712836   MPKI: 0.09002
L2C LOAD TRANSLATION NON_SPEC    ACCESS:      42571  HIT:      27510  MISS:      15061  HIT %:    64.6215  MISS %:    35.3785   MPKI: 0.075305
L2C PREFETCH  REQUESTED:   25942127  ISSUED:   24738037  USEFUL:     871433  USELESS:     503051
L2C USEFUL LOAD PREFETCHES:     871433 PREFETCH ISSUED TO LOWER LEVEL:    1417425  ACCURACY: 61.48
L2C TIMELY PREFETCHES:     871433 LATE PREFETCHES: 3001 DROPPED PREFETCHES: 0
L2C COMMIT LATE PREFETCHES: 0 MISSED OPPORTUNITY: 0 LATE IN PQ: 0 UNCOVERED: 0
L2C COMMIT LATE MSHR PREFETCHES: 0
L2C MPKI TOTAL: 0.695995 MSHR LATE: 0.015005 PQ LATE: 0 COMMIT LATE: 0 MISSED OPPORTUNITY: 0 UNCOVERED: 0
L2C PREFETCHES SAME FILL-ORIGIN LEVEL: 1377017 DIFFERENT FILL-ORIGIN LEVEL: 40408
L2C AVERAGE MISS LATENCY: 119.92 cycles
L2C AVERAGE MISS LATENCY LOAD: 89.6413 cycles
L2C AVERAGE MISS LATENCY PREFETCH: 79.7332 cycles
L2C AVERAGE MSHR OCCUPANCY: 0.921477
L2C MSHR FULL: 0.000135298
L2C RQ	ACCESS:   23442369	FORWARD:          0	MERGED:          0	TO_CACHE:   23435358
L2C WQ	ACCESS:    1927201	FORWARD:       8335	MERGED:        314	TO_CACHE:    1926887
L2C PQ	ACCESS:   24738037	FORWARD:          0	MERGED:     142039	TO_CACHE:   24594674

L2C Instructions Evicting Data 1806
L2C Translations Evicting Data 14988
L2C Data Evicting Data 1499192
L2C Instructions Evicting Instructions 66
L2C Translations Evicting Instructions 8
L2C Data Evicting Instructions 1691
L2C Instructions Evicting Translations 8
L2C Translations Evicting Translations 65
L2C Data Evicting Translations 14310
L2C Dense regions hint from L2: 0
PSCL5 SPEC fills:          0  NON-SPEC fills:          0
PSCL5 Test counter :          0
PSCL5 Leapfrog:          0
PSCL5 MSHR merge:          0
PSCL5 TOTAL     ACCESS:          0  HIT:          0  MISS:          0  HIT %:       -nan  MISS %:       -nan   MPKI: 0
PSCL5 PREFETCH  REQUESTED:          0  ISSUED:          0  USEFUL:          0  USELESS:          0
PSCL5 USEFUL LOAD PREFETCHES:          0 PREFETCH ISSUED TO LOWER LEVEL:          0  ACCURACY: -nan
PSCL5 TIMELY PREFETCHES:          0 LATE PREFETCHES: 0 DROPPED PREFETCHES: 0
PSCL5 COMMIT LATE PREFETCHES: 0 MISSED OPPORTUNITY: 0 LATE IN PQ: 0 UNCOVERED: 0
PSCL5 COMMIT LATE MSHR PREFETCHES: 0
PSCL5 MPKI TOTAL: 0 MSHR LATE: 0 PQ LATE: 0 COMMIT LATE: 0 MISSED OPPORTUNITY: 0 UNCOVERED: 0
PSCL5 PREFETCHES SAME FILL-ORIGIN LEVEL: 0 DIFFERENT FILL-ORIGIN LEVEL: 0

PSCL4 SPEC fills:          0  NON-SPEC fills:          0
PSCL4 Test counter :          0
PSCL4 Leapfrog:          0
PSCL4 MSHR merge:          0
PSCL4 TOTAL     ACCESS:          0  HIT:          0  MISS:          0  HIT %:       -nan  MISS %:       -nan   MPKI: 0
PSCL4 PREFETCH  REQUESTED:          0  ISSUED:          0  USEFUL:          0  USELESS:          0
PSCL4 USEFUL LOAD PREFETCHES:          0 PREFETCH ISSUED TO LOWER LEVEL:          0  ACCURACY: -nan
PSCL4 TIMELY PREFETCHES:          0 LATE PREFETCHES: 0 DROPPED PREFETCHES: 0
PSCL4 COMMIT LATE PREFETCHES: 0 MISSED OPPORTUNITY: 0 LATE IN PQ: 0 UNCOVERED: 0
PSCL4 COMMIT LATE MSHR PREFETCHES: 0
PSCL4 MPKI TOTAL: 0 MSHR LATE: 0 PQ LATE: 0 COMMIT LATE: 0 MISSED OPPORTUNITY: 0 UNCOVERED: 0
PSCL4 PREFETCHES SAME FILL-ORIGIN LEVEL: 0 DIFFERENT FILL-ORIGIN LEVEL: 0

PSCL3 SPEC fills:          0  NON-SPEC fills:          0
PSCL3 Test counter :          0
PSCL3 Leapfrog:          0
PSCL3 MSHR merge:          0
PSCL3 TOTAL     ACCESS:          0  HIT:          0  MISS:          0  HIT %:       -nan  MISS %:       -nan   MPKI: 0
PSCL3 PREFETCH  REQUESTED:          0  ISSUED:          0  USEFUL:          0  USELESS:          0
PSCL3 USEFUL LOAD PREFETCHES:          0 PREFETCH ISSUED TO LOWER LEVEL:          0  ACCURACY: -nan
PSCL3 TIMELY PREFETCHES:          0 LATE PREFETCHES: 0 DROPPED PREFETCHES: 0
PSCL3 COMMIT LATE PREFETCHES: 0 MISSED OPPORTUNITY: 0 LATE IN PQ: 0 UNCOVERED: 0
PSCL3 COMMIT LATE MSHR PREFETCHES: 0
PSCL3 MPKI TOTAL: 0 MSHR LATE: 0 PQ LATE: 0 COMMIT LATE: 0 MISSED OPPORTUNITY: 0 UNCOVERED: 0
PSCL3 PREFETCHES SAME FILL-ORIGIN LEVEL: 0 DIFFERENT FILL-ORIGIN LEVEL: 0

PSCL2 SPEC fills:          0  NON-SPEC fills:          0
PSCL2 Test counter :          0
PSCL2 Leapfrog:          0
PSCL2 MSHR merge:          0
PSCL2 TOTAL     ACCESS:          0  HIT:          0  MISS:          0  HIT %:       -nan  MISS %:       -nan   MPKI: 0
PSCL2 PREFETCH  REQUESTED:          0  ISSUED:          0  USEFUL:          0  USELESS:          0
PSCL2 USEFUL LOAD PREFETCHES:          0 PREFETCH ISSUED TO LOWER LEVEL:          0  ACCURACY: -nan
PSCL2 TIMELY PREFETCHES:          0 LATE PREFETCHES: 0 DROPPED PREFETCHES: 0
PSCL2 COMMIT LATE PREFETCHES: 0 MISSED OPPORTUNITY: 0 LATE IN PQ: 0 UNCOVERED: 0
PSCL2 COMMIT LATE MSHR PREFETCHES: 0
PSCL2 MPKI TOTAL: 0 MSHR LATE: 0 PQ LATE: 0 COMMIT LATE: 0 MISSED OPPORTUNITY: 0 UNCOVERED: 0
PSCL2 PREFETCHES SAME FILL-ORIGIN LEVEL: 0 DIFFERENT FILL-ORIGIN LEVEL: 0

LLC SPEC fills:          0  NON-SPEC fills:       2259
LLC Test counter :          0
LLC Leapfrog:          0
LLC MSHR merge:          0
LLC TOTAL     ACCESS:    2118456  HIT:    1521064  MISS:     597392  HIT %:    71.8006  MISS %:    28.1994   MPKI: 2.98696
LLC LOAD      TOTAL       ACCESS:     137870  HIT:      77711  MISS:      60159  HIT %:    56.3654  MISS %:    43.6346   MPKI: 0.300795
LLC LOAD      NON_SPEC    ACCESS:       6797  HIT:       4414  MISS:       2383  HIT %:    64.9404  MISS %:    35.0596   MPKI: 0.011915
LLC LOAD      SPEC        ACCESS:     131073  HIT:      73297  MISS:      57776  HIT %:    55.9207  MISS %:    44.0793   MPKI: 0.28888
LLC RFO       NON_SPEC    ACCESS:     117988  HIT:        288  MISS:     117700  HIT %:   0.244093  MISS %:    99.7559   MPKI: 0.5885
LLC PREFETCH  NON_SPEC    ACCESS:    1417375  HIT:    1047184  MISS:     370191  HIT %:    73.8819  MISS %:    26.1181   MPKI: 1.85095
LLC WRITEBACK NON_SPEC    ACCESS:     118452  HIT:     118359  MISS:         93  HIT %:    99.9215  MISS %:  0.0785128   MPKI: 0.000465
LLC CLEAN_EVICTION NON_SPEC    ACCESS:     295403  HIT:     252334  MISS:      43069  HIT %:    85.4203  MISS %:    14.5797   MPKI: 0.215345
LLC COMMIT LOAD NON_SPEC    ACCESS:      16307  HIT:      11233  MISS:       5074  HIT %:    68.8845  MISS %:    31.1155   MPKI: 0.02537
LLC LOAD TRANSLATION NON_SPEC    ACCESS:      15061  HIT:      13955  MISS:       1106  HIT %:    92.6565  MISS %:    7.34347   MPKI: 0.00553
LLC PREFETCH  REQUESTED:          0  ISSUED:          0  USEFUL:      49243  USELESS:     315190
LLC USEFUL LOAD PREFETCHES:      49243 PREFETCH ISSUED TO LOWER LEVEL:     370192  ACCURACY: 13.302
LLC TIMELY PREFETCHES:      49243 LATE PREFETCHES: 0 DROPPED PREFETCHES: 0
LLC COMMIT LATE PREFETCHES: 0 MISSED OPPORTUNITY: 0 LATE IN PQ: 0 UNCOVERED: 0
LLC COMMIT LATE MSHR PREFETCHES: 0
LLC MPKI TOTAL: 0.300795 MSHR LATE: 0 PQ LATE: 0 COMMIT LATE: 0 MISSED OPPORTUNITY: 0 UNCOVERED: 0
LLC PREFETCHES SAME FILL-ORIGIN LEVEL: 6562 DIFFERENT FILL-ORIGIN LEVEL: 0
LLC AVERAGE MISS LATENCY: 269.293 cycles
LLC AVERAGE MISS LATENCY LOAD: 156.186 cycles
LLC AVERAGE MISS LATENCY PREFETCH: 188.238 cycles
LLC AVERAGE MSHR OCCUPANCY: 4.93614
LLC MSHR FULL: 0
LLC RQ	ACCESS:     287344	FORWARD:          0	MERGED:          0	TO_CACHE:     287226
LLC WQ	ACCESS:     413855	FORWARD:        149	MERGED:          0	TO_CACHE:     413855
LLC PQ	ACCESS:    1417425	FORWARD:          0	MERGED:         12	TO_CACHE:    1417382

LLC Dense regions hint to LLC: 0

RAW hits: 564889
Loads Generated: 78372000
Loads sent to L1D: 77807110
Stores Generated: 16212582
Stores sent to L1D: 16212582
Major fault: 0 Minor fault: 8463
Allocated PAGES: 8463
Total Load insts: 124283834
Total Non-spec loads: 8537971
Percentage of speculative loads: 93.1303

LeapFrogging counter: 27262266
Commit hits: 43485980 miss: 27601361
Commit hit %: 61.1726 miss %: 38.8274
Commits not translated: 0
Loads retired: 14429925
Stores retired: 16212582
Cache fills: 14429943
L1D response latency: 12.9257 cycles
Load retirement latency: 172.557 cycles
OOO test counter: 0
Discarded buffer inserts: 43485980 hits: 472929 hit %: 1.08754
Filter prediction accuracy: 98.4576
------------------
Depth Distribution
------------------
depth 0: 17185746
depth 1: 17458369
depth 2: 51091430
depth 3: 12185232
depth 4: 44075
depth 5: 191
depth 6: 30
depth 7: 6
depth 8: 0
depth 9: 0
depth 10: 0
depth 11: 0
depth 12: 0
depth 13: 0
depth 14: 0
depth 15: 0
depth 16: 0
depth 17: 0
depth 18: 0
depth 19: 0
depth 20: 0
depth 21: 0
depth 22: 0
depth 23: 0
depth 24: 0
depth 25: 0
depth 26: 0
depth 27: 0
depth 28: 0
depth 29: 0
Total: 97965079
------------------
ST read accesses: 78365350
ST write accesses: 6629
PT read accesses: 1182039362
PT write accesses: 90312595
FILTER read accesses: 262721359
FILTER write accesses: 35665033
GHR read accesses: 538990520
GHR write accesses: 73420649
PERC read accesses: 7541002683
PERC write accesses: 92773561
GHR counter read accesses: 156743958
GHR counter write accesses: 112417276
GHR ip read accesses: 310418934
GHR ip write accesses: 313487916
ST tag read accesses: 24503578670
ST tag write accesses: 1378142063

DRAM Statistics
 CHANNEL 0
 RQ ROW_BUFFER_HIT:     239554  ROW_BUFFER_MISS:     314676
 DBUS_CONGESTED:        435
 WQ ROW_BUFFER_HIT:      75231  ROW_BUFFER_MISS:     269816  FULL:          0

 AVG_CONGESTED_CYCLE: 4
 All warmup complete: 2
Channel 0 Bank busy for read cycles: 0
Channel 0 Bank busy for write cycles: 0
Channel 0
Rank 0
0banks busy for read cycles: 232510397
0banks busy for write cycles: 185970
1banks busy for read cycles: 29948720
1banks busy for write cycles: 23857126
2banks busy for read cycles: 6721315
2banks busy for write cycles: 6193178
3banks busy for read cycles: 2449306
3banks busy for write cycles: 2223023
4banks busy for read cycles: 835867
4banks busy for write cycles: 876971
5banks busy for read cycles: 408411
5banks busy for write cycles: 438325
6banks busy for read cycles: 247886
6banks busy for write cycles: 260511
7banks busy for read cycles: 182628
7banks busy for write cycles: 166870
8banks busy for read cycles: 41564
8banks busy for write cycles: 82358

CPU 0 Branch Prediction Accuracy: 99.9875% MPKI: 0.001115 Average ROB Occupancy at Mispredict: 24.8744
Branch types
NOT_BRANCH: 198218417 99.1092%
BRANCH_DIRECT_JUMP: 218098 0.109049%
BRANCH_INDIRECT: 36350 0.018175%
BRANCH_CONDITIONAL: 1090933 0.545466%
BRANCH_DIRECT_CALL: 218098 0.109049%
BRANCH_INDIRECT_CALL: 0 0%
BRANCH_RETURN: 218098 0.109049%
BRANCH_OTHER: 0 0%

DRAM PAGES: 1048576
Allocated PAGES: 8463
