Initialize SIGNATURE TABLE
ST_SET: 1
ST_WAY: 256
ST_TAG_BIT: 16
ST_TAG_MASK: ffff

Initialize PATTERN TABLE
PT_SET: 512
PT_WAY: 4
SIG_DELTA_BIT: 7
C_SIG_BIT: 4
C_DELTA_BIT: 4

Initialize PREFETCH FILTER
FILTER_SET: 1024

Initialize PERCEPTRON
PERC_ENTRIES: 4096
PERC_FEATURES: 9

*** ChampSim Multicore Out-of-Order Simulator ***

Warmup Instructions: 50000000
Simulation Instructions: 200000000
Number of CPUs: 1
LLC sets: 2048
LLC ways: 16
L0D sets: 16
L0D ways: 2
ROB size: 352
LQ size: 128
SQ size: 72
Secure Berti: OFF
Berti: OFF
Berti Fill: OFF
On commit prefetching: ON
Hit-based filter: ON
Time-guarding: ON
Free-slotting: ON
Leap-frogging: ON
Train prefetcher on L0D bypass: OFF
No translation penalty for prefetchers: OFF
Prefetch to L0D only: OFF
Prefetch to L1D only: OFF
Clean evictions: ON
Commit loads: ON
Commit write: ON
Fill commit loads to L2C, LLC: ON
DRAM IO FREQUENCY: 6400
ROB SIZE: 352
Off-chip DRAM Size: 4096 MB Channels: 1 Width: 64-bit Data Rate: 6400 MT/s
CPU 0 runs /home/sumon/secure_berti/GhostMinion/../../traces/spec/623.xalancbmk_s-202B.champsimtrace.xz
.xz
BTB has LRU replacement policy
ITLB has LRU replacement policy
DTLB has LRU replacement policy
STLB has LRU replacement policy
L1I has LRU replacement policy
L0D has LRU replacement policy
L1D has LRU replacement policy
PERC_ENTRIES: 4096
L2C has LRU replacement policy
LLC has LRU replacement policy
Heartbeat CPU 0 instructions: 10000001 cycles: 3864233 heartbeat IPC: 2.58784 cumulative IPC: 2.58784 (Simulation time: 0 hr 0 min 34 sec) 
Heartbeat CPU 0 instructions: 20000002 cycles: 7697078 heartbeat IPC: 2.60903 cumulative IPC: 2.59839 (Simulation time: 0 hr 1 min 7 sec) 
Heartbeat CPU 0 instructions: 30000000 cycles: 11532128 heartbeat IPC: 2.60753 cumulative IPC: 2.60143 (Simulation time: 0 hr 1 min 41 sec) 
Heartbeat CPU 0 instructions: 40000002 cycles: 15367874 heartbeat IPC: 2.60706 cumulative IPC: 2.60283 (Simulation time: 0 hr 2 min 15 sec) 
Heartbeat CPU 0 instructions: 50000001 cycles: 19210937 heartbeat IPC: 2.60209 cumulative IPC: 2.60268 (Simulation time: 0 hr 2 min 49 sec) 

Warmup complete CPU 0 instructions: 50000001 cycles: 19210937 (Simulation time: 0 hr 2 min 49 sec) 

Heartbeat CPU 0 instructions: 60000002 cycles: 33578873 heartbeat IPC: 0.695994 cumulative IPC: 0.695994 (Simulation time: 0 hr 3 min 41 sec) 
Heartbeat CPU 0 instructions: 70000002 cycles: 47761773 heartbeat IPC: 0.705074 cumulative IPC: 0.700505 (Simulation time: 0 hr 4 min 36 sec) 
Heartbeat CPU 0 instructions: 80000000 cycles: 63379427 heartbeat IPC: 0.640301 cumulative IPC: 0.679217 (Simulation time: 0 hr 5 min 35 sec) 
Heartbeat CPU 0 instructions: 90000001 cycles: 76732091 heartbeat IPC: 0.748914 cumulative IPC: 0.695396 (Simulation time: 0 hr 6 min 30 sec) 
Heartbeat CPU 0 instructions: 100000001 cycles: 91995119 heartbeat IPC: 0.655178 cumulative IPC: 0.686962 (Simulation time: 0 hr 7 min 28 sec) 
Heartbeat CPU 0 instructions: 110000000 cycles: 106328435 heartbeat IPC: 0.697675 cumulative IPC: 0.688725 (Simulation time: 0 hr 8 min 26 sec) 
Heartbeat CPU 0 instructions: 120000002 cycles: 119908911 heartbeat IPC: 0.736351 cumulative IPC: 0.695148 (Simulation time: 0 hr 9 min 21 sec) 
Heartbeat CPU 0 instructions: 130000002 cycles: 134131168 heartbeat IPC: 0.703123 cumulative IPC: 0.696135 (Simulation time: 0 hr 10 min 17 sec) 
Heartbeat CPU 0 instructions: 140000000 cycles: 149505274 heartbeat IPC: 0.650444 cumulative IPC: 0.690744 (Simulation time: 0 hr 11 min 18 sec) 
Heartbeat CPU 0 instructions: 150000001 cycles: 164183357 heartbeat IPC: 0.681288 cumulative IPC: 0.689786 (Simulation time: 0 hr 12 min 16 sec) 
Heartbeat CPU 0 instructions: 160000000 cycles: 178102963 heartbeat IPC: 0.718411 cumulative IPC: 0.692294 (Simulation time: 0 hr 13 min 13 sec) 
Heartbeat CPU 0 instructions: 170000000 cycles: 191464227 heartbeat IPC: 0.748432 cumulative IPC: 0.696649 (Simulation time: 0 hr 14 min 0 sec) 
Heartbeat CPU 0 instructions: 180000001 cycles: 206565773 heartbeat IPC: 0.662184 cumulative IPC: 0.693871 (Simulation time: 0 hr 14 min 48 sec) 
Heartbeat CPU 0 instructions: 190000002 cycles: 220045182 heartbeat IPC: 0.741872 cumulative IPC: 0.697092 (Simulation time: 0 hr 15 min 33 sec) 
Heartbeat CPU 0 instructions: 200000002 cycles: 235092330 heartbeat IPC: 0.664578 cumulative IPC: 0.694826 (Simulation time: 0 hr 16 min 20 sec) 
Heartbeat CPU 0 instructions: 210000003 cycles: 248063782 heartbeat IPC: 0.770924 cumulative IPC: 0.699139 (Simulation time: 0 hr 17 min 2 sec) 
Heartbeat CPU 0 instructions: 220000000 cycles: 262261245 heartbeat IPC: 0.704351 cumulative IPC: 0.699444 (Simulation time: 0 hr 17 min 46 sec) 
Heartbeat CPU 0 instructions: 230000001 cycles: 275972028 heartbeat IPC: 0.729353 cumulative IPC: 0.701041 (Simulation time: 0 hr 18 min 30 sec) 
Heartbeat CPU 0 instructions: 240000001 cycles: 289535758 heartbeat IPC: 0.73726 cumulative IPC: 0.702858 (Simulation time: 0 hr 19 min 12 sec) 
Heartbeat CPU 0 instructions: 250000001 cycles: 303904836 heartbeat IPC: 0.695939 cumulative IPC: 0.702509 (Simulation time: 0 hr 19 min 56 sec) 
Finished CPU 0 instructions: 200000000 cycles: 284693899 cumulative IPC: 0.702509 (Simulation time: 0 hr 19 min 56 sec) 
 Instruction ID: 250000201

ChampSim completed all CPUs

Region of Interest Statistics

CPU 0 cumulative IPC: 0.702509 instructions: 200000000 cycles: 284693899
ITLB SPEC fills:          0  NON-SPEC fills:          0
ITLB Test counter :          0
ITLB Leapfrog:          0
ITLB MSHR merge:          0
ITLB TOTAL     ACCESS:   29467605  HIT:   29467605  MISS:          0  HIT %:        100  MISS %:          0   MPKI: 0
ITLB LOAD TRANSLATION NON_SPEC    ACCESS:   29467605  HIT:   29467605  MISS:          0  HIT %:        100  MISS %:          0   MPKI: 0
ITLB PREFETCH  REQUESTED:          0  ISSUED:          0  USEFUL:          0  USELESS:          0
ITLB USEFUL LOAD PREFETCHES:          0 PREFETCH ISSUED TO LOWER LEVEL:          0  ACCURACY: -nan
ITLB TIMELY PREFETCHES:          0 LATE PREFETCHES: 0 DROPPED PREFETCHES: 0
ITLB COMMIT LATE PREFETCHES: 0 MISSED OPPORTUNITY: 0 LATE IN PQ: 0 UNCOVERED: 0
ITLB COMMIT LATE MSHR PREFETCHES: 0
ITLB MPKI TOTAL: 0 MSHR LATE: 0 PQ LATE: 0 COMMIT LATE: 0 MISSED OPPORTUNITY: 0 UNCOVERED: 0
ITLB PREFETCHES SAME FILL-ORIGIN LEVEL: 0 DIFFERENT FILL-ORIGIN LEVEL: 0
ITLB AVERAGE MISS LATENCY: -nan cycles
ITLB AVERAGE MISS LATENCY LOAD: -nan cycles
ITLB AVERAGE MISS LATENCY PREFETCH: -nan cycles
ITLB AVERAGE MSHR OCCUPANCY: 0
ITLB MSHR FULL: 0
ITLB RQ	ACCESS:   36556677	FORWARD:          0	MERGED:    7089073	TO_CACHE:   29467604

DTLB SPEC fills:          0  NON-SPEC fills:          0
DTLB Test counter :          0
DTLB Leapfrog:          0
DTLB MSHR merge:          0
DTLB TOTAL     ACCESS:   35565758  HIT:   35477891  MISS:      87867  HIT %:    99.7529  MISS %:   0.247055   MPKI: 0.439335
DTLB LOAD TRANSLATION NON_SPEC    ACCESS:   35565758  HIT:   35477891  MISS:      87867  HIT %:    99.7529  MISS %:   0.247055   MPKI: 0.439335
DTLB PREFETCH  REQUESTED:          0  ISSUED:          0  USEFUL:          0  USELESS:          0
DTLB USEFUL LOAD PREFETCHES:          0 PREFETCH ISSUED TO LOWER LEVEL:          0  ACCURACY: -nan
DTLB TIMELY PREFETCHES:          0 LATE PREFETCHES: 0 DROPPED PREFETCHES: 0
DTLB COMMIT LATE PREFETCHES: 0 MISSED OPPORTUNITY: 0 LATE IN PQ: 0 UNCOVERED: 0
DTLB COMMIT LATE MSHR PREFETCHES: 0
DTLB MPKI TOTAL: 0 MSHR LATE: 0 PQ LATE: 0 COMMIT LATE: 0 MISSED OPPORTUNITY: 0 UNCOVERED: 0
DTLB PREFETCHES SAME FILL-ORIGIN LEVEL: 0 DIFFERENT FILL-ORIGIN LEVEL: 0
DTLB AVERAGE MISS LATENCY: 10.2851 cycles
DTLB AVERAGE MISS LATENCY LOAD: -nan cycles
DTLB AVERAGE MISS LATENCY PREFETCH: -nan cycles
DTLB AVERAGE MSHR OCCUPANCY: 0.00135905
DTLB MSHR FULL: 0
DTLB RQ	ACCESS:   40770550	FORWARD:          0	MERGED:    5204508	TO_CACHE:   35566042

STLB SPEC fills:          0  NON-SPEC fills:          0
STLB Test counter :          0
STLB Leapfrog:          0
STLB MSHR merge:          0
STLB TOTAL     ACCESS:      87867  HIT:      87684  MISS:        183  HIT %:    99.7917  MISS %:   0.208269   MPKI: 0.000915
STLB LOAD TRANSLATION NON_SPEC    ACCESS:      87867  HIT:      87684  MISS:        183  HIT %:    99.7917  MISS %:   0.208269   MPKI: 0.000915
STLB PREFETCH  REQUESTED:          0  ISSUED:          0  USEFUL:          0  USELESS:          0
STLB USEFUL LOAD PREFETCHES:          0 PREFETCH ISSUED TO LOWER LEVEL:          0  ACCURACY: -nan
STLB TIMELY PREFETCHES:          0 LATE PREFETCHES: 0 DROPPED PREFETCHES: 0
STLB COMMIT LATE PREFETCHES: 0 MISSED OPPORTUNITY: 0 LATE IN PQ: 0 UNCOVERED: 0
STLB COMMIT LATE MSHR PREFETCHES: 0
STLB MPKI TOTAL: 0 MSHR LATE: 0 PQ LATE: 0 COMMIT LATE: 0 MISSED OPPORTUNITY: 0 UNCOVERED: 0
STLB PREFETCHES SAME FILL-ORIGIN LEVEL: 0 DIFFERENT FILL-ORIGIN LEVEL: 0
STLB AVERAGE MISS LATENCY: 616.497 cycles
STLB AVERAGE MISS LATENCY LOAD: -nan cycles
STLB AVERAGE MISS LATENCY PREFETCH: -nan cycles
STLB AVERAGE MSHR OCCUPANCY: 0.000887705
STLB MSHR FULL: 0
STLB RQ	ACCESS:      87867	FORWARD:          0	MERGED:          0	TO_CACHE:      87867

STLB Hit, L1D data hit: 0
STLB Hit, L2C data hit: 0
STLB Hit, LLC data hit: 0
STLB Hit, LLC data miss: 0
STLB STLB hints to L2: 0
L0D SPEC fills:   18296650  NON-SPEC fills:          0
L0D TimeGuard Request with older TS:     279377 Restricted eviction:     117299 read:      24145
L0D Test counter :          0
L0D Leapfrog:          0
L0D MSHR merge:    3495921
L0D TOTAL     ACCESS:   33735905  HIT:    7876729  MISS:   25859176  HIT %:    23.3482  MISS %:    76.6518   MPKI: 129.296
L0D LOAD      TOTAL       ACCESS:   33735905  HIT:    7876729  MISS:   25859176  HIT %:    23.3482  MISS %:    76.6518   MPKI: 129.296
L0D LOAD      NON_SPEC    ACCESS:    7449450  HIT:       4223  MISS:    7445227  HIT %:  0.0566887  MISS %:    99.9433   MPKI: 37.2261
L0D LOAD      SPEC        ACCESS:   26286455  HIT:    7872506  MISS:   18413949  HIT %:    29.9489  MISS %:    70.0511   MPKI: 92.0697
L0D PREFETCH  REQUESTED:          0  ISSUED:          0  USEFUL:          0  USELESS:          0
L0D USEFUL LOAD PREFETCHES:          0 PREFETCH ISSUED TO LOWER LEVEL:          0  ACCURACY: -nan
L0D TIMELY PREFETCHES:          0 LATE PREFETCHES: 0 DROPPED PREFETCHES: 0
L0D COMMIT LATE PREFETCHES: 0 MISSED OPPORTUNITY: 0 LATE IN PQ: 0 UNCOVERED: 0
L0D COMMIT LATE MSHR PREFETCHES: 0
L0D MPKI TOTAL: 146.775 MSHR LATE: 0 PQ LATE: 0 COMMIT LATE: 0 MISSED OPPORTUNITY: 0 UNCOVERED: 0
L0D PREFETCHES SAME FILL-ORIGIN LEVEL: 0 DIFFERENT FILL-ORIGIN LEVEL: 0
L0D AVERAGE MISS LATENCY: 12.9105 cycles
L0D AVERAGE MISS LATENCY LOAD: 12.9105 cycles
L0D AVERAGE MISS LATENCY PREFETCH: -nan cycles
L0D AVERAGE MSHR OCCUPANCY: 0.896595
L0D MSHR FULL: 0
L0D RQ	ACCESS:   59779566	FORWARD:          0	MERGED:   22547741	TO_CACHE:   37231825
L0D WQ	ACCESS:    3538725	FORWARD:          0	MERGED:          0	TO_CACHE:    3538725

L1D SPEC fills:          0  NON-SPEC fills:    1603623
L1D Test counter :          0
L1D Leapfrog:          0
L1D MSHR merge:       1260
L1D TOTAL     ACCESS:   37298542  HIT:   28753358  MISS:    8545184  HIT %:    77.0898  MISS %:    22.9102   MPKI: 42.7259
L1D LOAD      TOTAL       ACCESS:   25857916  HIT:   20769852  MISS:    5088064  HIT %:     80.323  MISS %:     19.677   MPKI: 25.4403
L1D LOAD      NON_SPEC    ACCESS:    7445163  HIT:    5841540  MISS:    1603623  HIT %:    78.4609  MISS %:    21.5391   MPKI: 8.01811
L1D LOAD      SPEC        ACCESS:   18412753  HIT:   14928312  MISS:    3484441  HIT %:    81.0759  MISS %:    18.9241   MPKI: 17.4222
L1D RFO       NON_SPEC    ACCESS:    3538725  HIT:    3538725  MISS:          0  HIT %:        100  MISS %:          0   MPKI: 0
L1D COMMIT LOAD NON_SPEC    ACCESS:    4105944  HIT:    4103322  MISS:       2622  HIT %:    99.9361  MISS %:  0.0638586   MPKI: 0.01311
L1D COMMIT WRITE NON_SPEC    ACCESS:    3795957  HIT:     341459  MISS:    3454498  HIT %:    8.99533  MISS %:    91.0047   MPKI: 17.2725
L1D PREFETCH  REQUESTED:          0  ISSUED:          0  USEFUL:          0  USELESS:          0
L1D USEFUL LOAD PREFETCHES:          0 PREFETCH ISSUED TO LOWER LEVEL:          0  ACCURACY: -nan
L1D TIMELY PREFETCHES:          0 LATE PREFETCHES: 0 DROPPED PREFETCHES: 0
L1D COMMIT LATE PREFETCHES: 0 MISSED OPPORTUNITY: 0 LATE IN PQ: 0 UNCOVERED: 0
L1D COMMIT LATE MSHR PREFETCHES: 0
L1D MPKI TOTAL: 25.4466 MSHR LATE: 0 PQ LATE: 0 COMMIT LATE: 0 MISSED OPPORTUNITY: 0 UNCOVERED: 0
L1D PREFETCHES SAME FILL-ORIGIN LEVEL: 0 DIFFERENT FILL-ORIGIN LEVEL: 0
L1D AVERAGE MISS LATENCY: 23.6734 cycles
L1D AVERAGE MISS LATENCY LOAD: 39.7447 cycles
L1D AVERAGE MISS LATENCY PREFETCH: -nan cycles
L1D AVERAGE MSHR OCCUPANCY: 0.235055
L1D MSHR FULL: 0
L1D RQ	ACCESS:   34668007	FORWARD:          0	MERGED:    4700767	TO_CACHE:   29967240
L1D WQ	ACCESS:    7334682	FORWARD:          0	MERGED:          0	TO_CACHE:    7334682

L1D UNIQUE REGIONS ACCESSED: 0
L1D REGIONS CONFLICTS: 0
L1D Cross Page Prefetch Requests: 0
L1D Same Page Prefetch Requests: 0
L1D ROI Sum of L1D PQ occupancy: 0
L1D PREFETCHES PUSHED FROM L2C: 0
L1I SPEC fills:          0  NON-SPEC fills:          0
L1I Test counter :          0
L1I Leapfrog:          0
L1I MSHR merge:          0
L1I TOTAL     ACCESS:   36556676  HIT:   36556676  MISS:          0  HIT %:        100  MISS %:          0   MPKI: 0
L1I LOAD      TOTAL       ACCESS:   36556676  HIT:   36556676  MISS:          0  HIT %:        100  MISS %:          0   MPKI: 0
L1I LOAD      NON_SPEC    ACCESS:   36556676  HIT:   36556676  MISS:          0  HIT %:        100  MISS %:          0   MPKI: 0
L1I PREFETCH  REQUESTED:          0  ISSUED:          0  USEFUL:          0  USELESS:          0
L1I USEFUL LOAD PREFETCHES:          0 PREFETCH ISSUED TO LOWER LEVEL:          0  ACCURACY: -nan
L1I TIMELY PREFETCHES:          0 LATE PREFETCHES: 0 DROPPED PREFETCHES: 0
L1I COMMIT LATE PREFETCHES: 0 MISSED OPPORTUNITY: 0 LATE IN PQ: 0 UNCOVERED: 0
L1I COMMIT LATE MSHR PREFETCHES: 0
L1I MPKI TOTAL: 0 MSHR LATE: 0 PQ LATE: 0 COMMIT LATE: 0 MISSED OPPORTUNITY: 0 UNCOVERED: 0
L1I PREFETCHES SAME FILL-ORIGIN LEVEL: 0 DIFFERENT FILL-ORIGIN LEVEL: 0
L1I AVERAGE MISS LATENCY: -nan cycles
L1I AVERAGE MISS LATENCY LOAD: -nan cycles
L1I AVERAGE MISS LATENCY PREFETCH: -nan cycles
L1I AVERAGE MSHR OCCUPANCY: 0
L1I MSHR FULL: 0
L1I RQ	ACCESS:   66528110	FORWARD:          0	MERGED:   29971433	TO_CACHE:   36556677

BTB SPEC fills:          0  NON-SPEC fills:          0
BTB Test counter :          0
BTB Leapfrog:          0
BTB MSHR merge:          0
BTB TOTAL     ACCESS:   34960393  HIT:   34960376  MISS:         17  HIT %:        100  MISS %: 4.86265e-05   MPKI: 8.5e-05
BTB BRANCH_DIRECT_JUMP	ACCESS:        138  HIT:        137  MISS:          1
BTB BRANCH_INDIRECT	ACCESS:          0  HIT:          0  MISS:          0
BTB BRANCH_CONDITIONAL	ACCESS:   31422499  HIT:   31422490  MISS:          9
BTB BRANCH_DIRECT_CALL	ACCESS:     884508  HIT:     884506  MISS:          2
BTB BRANCH_INDIRECT_CALL	ACCESS:     884370  HIT:     884369  MISS:          1
BTB BRANCH_RETURN	ACCESS:    1768878  HIT:    1768874  MISS:          4
BTB BRANCH_OTHER ACCESS:          0  HIT:          0  MISS:          0

L2C SPEC fills:          0  NON-SPEC fills:     241889
L2C Test counter :          0
L2C Leapfrog:          0
L2C MSHR merge:     743925
L2C TOTAL     ACCESS:   10940853  HIT:    4674632  MISS:    6266221  HIT %:    42.7264  MISS %:    57.2736   MPKI: 31.3311
L2C LOAD      TOTAL       ACCESS:    5087922  HIT:    3581887  MISS:    1506035  HIT %:    70.3998  MISS %:    29.6002   MPKI: 7.53017
L2C LOAD      NON_SPEC    ACCESS:    1603622  HIT:    1361733  MISS:     241889  HIT %:    84.9161  MISS %:    15.0839   MPKI: 1.20945
L2C LOAD      SPEC        ACCESS:    3484300  HIT:    2220154  MISS:    1264146  HIT %:    63.7188  MISS %:    36.2812   MPKI: 6.32073
L2C PREFETCH  NON_SPEC    ACCESS:    4436398  HIT:     756204  MISS:    3680194  HIT %:    17.0454  MISS %:    82.9546   MPKI: 18.401
L2C WRITEBACK NON_SPEC    ACCESS:        137  HIT:        137  MISS:          0  HIT %:        100  MISS %:          0   MPKI: 0
L2C CLEAN_EVICTION NON_SPEC    ACCESS:    1412859  HIT:     333984  MISS:    1078875  HIT %:    23.6389  MISS %:    76.3611   MPKI: 5.39438
L2C COMMIT LOAD NON_SPEC    ACCESS:       2622  HIT:       2079  MISS:        543  HIT %:    79.2906  MISS %:    20.7094   MPKI: 0.002715
L2C LOAD TRANSLATION NON_SPEC    ACCESS:        915  HIT:        341  MISS:        574  HIT %:    37.2678  MISS %:    62.7322   MPKI: 0.00287
L2C PREFETCH  REQUESTED:    5959623  ISSUED:    5959601  USEFUL:    3459160  USELESS:     221756
L2C USEFUL LOAD PREFETCHES:    3459160 PREFETCH ISSUED TO LOWER LEVEL:    4426879  ACCURACY: 78.1399
L2C TIMELY PREFETCHES:    3459160 LATE PREFETCHES: 743969 DROPPED PREFETCHES: 0
L2C COMMIT LATE PREFETCHES: 0 MISSED OPPORTUNITY: 0 LATE IN PQ: 0 UNCOVERED: 0
L2C COMMIT LATE MSHR PREFETCHES: 0
L2C MPKI TOTAL: 7.53017 MSHR LATE: 3.71984 PQ LATE: 0 COMMIT LATE: 0 MISSED OPPORTUNITY: 0 UNCOVERED: 0
L2C PREFETCHES SAME FILL-ORIGIN LEVEL: 4424168 DIFFERENT FILL-ORIGIN LEVEL: 2711
L2C AVERAGE MISS LATENCY: 100.091 cycles
L2C AVERAGE MISS LATENCY LOAD: 96.8897 cycles
L2C AVERAGE MISS LATENCY PREFETCH: 130.742 cycles
L2C AVERAGE MSHR OCCUPANCY: 1.9362
L2C MSHR FULL: 0
L2C RQ	ACCESS:    5091601	FORWARD:          0	MERGED:          0	TO_CACHE:    5091459
L2C WQ	ACCESS:    1412996	FORWARD:        143	MERGED:          0	TO_CACHE:    1412996
L2C PQ	ACCESS:    5959601	FORWARD:          0	MERGED:     249134	TO_CACHE:    5710466

L2C Instructions Evicting Data 0
L2C Translations Evicting Data 574
L2C Data Evicting Data 3922182
L2C Instructions Evicting Instructions 0
L2C Translations Evicting Instructions 0
L2C Data Evicting Instructions 0
L2C Instructions Evicting Translations 0
L2C Translations Evicting Translations 0
L2C Data Evicting Translations 444
L2C Dense regions hint from L2: 0
PSCL5 SPEC fills:          0  NON-SPEC fills:          0
PSCL5 Test counter :          0
PSCL5 Leapfrog:          0
PSCL5 MSHR merge:          0
PSCL5 TOTAL     ACCESS:          0  HIT:          0  MISS:          0  HIT %:       -nan  MISS %:       -nan   MPKI: 0
PSCL5 PREFETCH  REQUESTED:          0  ISSUED:          0  USEFUL:          0  USELESS:          0
PSCL5 USEFUL LOAD PREFETCHES:          0 PREFETCH ISSUED TO LOWER LEVEL:          0  ACCURACY: -nan
PSCL5 TIMELY PREFETCHES:          0 LATE PREFETCHES: 0 DROPPED PREFETCHES: 0
PSCL5 COMMIT LATE PREFETCHES: 0 MISSED OPPORTUNITY: 0 LATE IN PQ: 0 UNCOVERED: 0
PSCL5 COMMIT LATE MSHR PREFETCHES: 0
PSCL5 MPKI TOTAL: 0 MSHR LATE: 0 PQ LATE: 0 COMMIT LATE: 0 MISSED OPPORTUNITY: 0 UNCOVERED: 0
PSCL5 PREFETCHES SAME FILL-ORIGIN LEVEL: 0 DIFFERENT FILL-ORIGIN LEVEL: 0

PSCL4 SPEC fills:          0  NON-SPEC fills:          0
PSCL4 Test counter :          0
PSCL4 Leapfrog:          0
PSCL4 MSHR merge:          0
PSCL4 TOTAL     ACCESS:          0  HIT:          0  MISS:          0  HIT %:       -nan  MISS %:       -nan   MPKI: 0
PSCL4 PREFETCH  REQUESTED:          0  ISSUED:          0  USEFUL:          0  USELESS:          0
PSCL4 USEFUL LOAD PREFETCHES:          0 PREFETCH ISSUED TO LOWER LEVEL:          0  ACCURACY: -nan
PSCL4 TIMELY PREFETCHES:          0 LATE PREFETCHES: 0 DROPPED PREFETCHES: 0
PSCL4 COMMIT LATE PREFETCHES: 0 MISSED OPPORTUNITY: 0 LATE IN PQ: 0 UNCOVERED: 0
PSCL4 COMMIT LATE MSHR PREFETCHES: 0
PSCL4 MPKI TOTAL: 0 MSHR LATE: 0 PQ LATE: 0 COMMIT LATE: 0 MISSED OPPORTUNITY: 0 UNCOVERED: 0
PSCL4 PREFETCHES SAME FILL-ORIGIN LEVEL: 0 DIFFERENT FILL-ORIGIN LEVEL: 0

PSCL3 SPEC fills:          0  NON-SPEC fills:          0
PSCL3 Test counter :          0
PSCL3 Leapfrog:          0
PSCL3 MSHR merge:          0
PSCL3 TOTAL     ACCESS:          0  HIT:          0  MISS:          0  HIT %:       -nan  MISS %:       -nan   MPKI: 0
PSCL3 PREFETCH  REQUESTED:          0  ISSUED:          0  USEFUL:          0  USELESS:          0
PSCL3 USEFUL LOAD PREFETCHES:          0 PREFETCH ISSUED TO LOWER LEVEL:          0  ACCURACY: -nan
PSCL3 TIMELY PREFETCHES:          0 LATE PREFETCHES: 0 DROPPED PREFETCHES: 0
PSCL3 COMMIT LATE PREFETCHES: 0 MISSED OPPORTUNITY: 0 LATE IN PQ: 0 UNCOVERED: 0
PSCL3 COMMIT LATE MSHR PREFETCHES: 0
PSCL3 MPKI TOTAL: 0 MSHR LATE: 0 PQ LATE: 0 COMMIT LATE: 0 MISSED OPPORTUNITY: 0 UNCOVERED: 0
PSCL3 PREFETCHES SAME FILL-ORIGIN LEVEL: 0 DIFFERENT FILL-ORIGIN LEVEL: 0

PSCL2 SPEC fills:          0  NON-SPEC fills:          0
PSCL2 Test counter :          0
PSCL2 Leapfrog:          0
PSCL2 MSHR merge:          0
PSCL2 TOTAL     ACCESS:          0  HIT:          0  MISS:          0  HIT %:       -nan  MISS %:       -nan   MPKI: 0
PSCL2 PREFETCH  REQUESTED:          0  ISSUED:          0  USEFUL:          0  USELESS:          0
PSCL2 USEFUL LOAD PREFETCHES:          0 PREFETCH ISSUED TO LOWER LEVEL:          0  ACCURACY: -nan
PSCL2 TIMELY PREFETCHES:          0 LATE PREFETCHES: 0 DROPPED PREFETCHES: 0
PSCL2 COMMIT LATE PREFETCHES: 0 MISSED OPPORTUNITY: 0 LATE IN PQ: 0 UNCOVERED: 0
PSCL2 COMMIT LATE MSHR PREFETCHES: 0
PSCL2 MPKI TOTAL: 0 MSHR LATE: 0 PQ LATE: 0 COMMIT LATE: 0 MISSED OPPORTUNITY: 0 UNCOVERED: 0
PSCL2 PREFETCHES SAME FILL-ORIGIN LEVEL: 0 DIFFERENT FILL-ORIGIN LEVEL: 0

LLC SPEC fills:          0  NON-SPEC fills:      37777
LLC Test counter :          0
LLC Leapfrog:          0
LLC MSHR merge:          0
LLC TOTAL     ACCESS:    6600318  HIT:    2131558  MISS:    4468760  HIT %:    32.2948  MISS %:    67.7052   MPKI: 22.3438
LLC LOAD      TOTAL       ACCESS:     762110  HIT:     175903  MISS:     586207  HIT %:    23.0811  MISS %:    76.9189   MPKI: 2.93104
LLC LOAD      NON_SPEC    ACCESS:      47431  HIT:       9654  MISS:      37777  HIT %:    20.3538  MISS %:    79.6462   MPKI: 0.188885
LLC LOAD      SPEC        ACCESS:     714679  HIT:     166249  MISS:     548430  HIT %:    23.2621  MISS %:    76.7379   MPKI: 2.74215
LLC PREFETCH  NON_SPEC    ACCESS:    4426650  HIT:    1020160  MISS:    3406490  HIT %:    23.0459  MISS %:    76.9541   MPKI: 17.0325
LLC WRITEBACK NON_SPEC    ACCESS:        125  HIT:        125  MISS:          0  HIT %:        100  MISS %:          0   MPKI: 0
LLC CLEAN_EVICTION NON_SPEC    ACCESS:    1410360  HIT:     934776  MISS:     475584  HIT %:    66.2792  MISS %:    33.7208   MPKI: 2.37792
LLC COMMIT LOAD NON_SPEC    ACCESS:        499  HIT:        412  MISS:         87  HIT %:    82.5651  MISS %:    17.4349   MPKI: 0.000435
LLC LOAD TRANSLATION NON_SPEC    ACCESS:        574  HIT:        182  MISS:        392  HIT %:    31.7073  MISS %:    68.2927   MPKI: 0.00196
LLC PREFETCH  REQUESTED:          0  ISSUED:          0  USEFUL:      48007  USELESS:    3361956
LLC USEFUL LOAD PREFETCHES:      48007 PREFETCH ISSUED TO LOWER LEVEL:    3406494  ACCURACY: 1.40928
LLC TIMELY PREFETCHES:      48007 LATE PREFETCHES: 0 DROPPED PREFETCHES: 0
LLC COMMIT LATE PREFETCHES: 0 MISSED OPPORTUNITY: 0 LATE IN PQ: 0 UNCOVERED: 0
LLC COMMIT LATE MSHR PREFETCHES: 0
LLC MPKI TOTAL: 2.93104 MSHR LATE: 0 PQ LATE: 0 COMMIT LATE: 0 MISSED OPPORTUNITY: 0 UNCOVERED: 0
LLC PREFETCHES SAME FILL-ORIGIN LEVEL: 901 DIFFERENT FILL-ORIGIN LEVEL: 0
LLC AVERAGE MISS LATENCY: 120.614 cycles
LLC AVERAGE MISS LATENCY LOAD: 123.103 cycles
LLC AVERAGE MISS LATENCY PREFETCH: 137.018 cycles
LLC AVERAGE MSHR OCCUPANCY: 0.637098
LLC MSHR FULL: 0
LLC RQ	ACCESS:     763183	FORWARD:          0	MERGED:          0	TO_CACHE:     763183
LLC WQ	ACCESS:    1410485	FORWARD:          0	MERGED:          0	TO_CACHE:    1410485
LLC PQ	ACCESS:    4426879	FORWARD:          0	MERGED:          1	TO_CACHE:    4426878

LLC Dense regions hint to LLC: 0

RAW hits: 345
Loads Generated: 59779911
Loads sent to L1D: 59779566
Stores Generated: 3538724
Stores sent to L1D: 3538725
Major fault: 0 Minor fault: 1485
Allocated PAGES: 1485
Total Load insts: 74725326
Total Non-spec loads: 7896903
Percentage of speculative loads: 89.4321

LeapFrogging counter: 0
Commit hits: 18122760 miss: 34142705
Commit hit %: 34.6744 miss %: 65.3256
Commits not translated: 0
Loads retired: 5088064
Stores retired: 3538725
Cache fills: 5088064
L1D response latency: 39.7447 cycles
Load retirement latency: 59.181 cycles
OOO test counter: 0
Discarded buffer inserts: 18122760 hits: 41707 hit %: 0.230136
Filter prediction accuracy: 98.9901
------------------
Depth Distribution
------------------
depth 0: 55691315
depth 1: 75430
depth 2: 90729
depth 3: 230570
depth 4: 343168
depth 5: 1473252
depth 6: 2185995
depth 7: 1395460
depth 8: 1037596
depth 9: 1288523
depth 10: 1353960
depth 11: 1638309
depth 12: 2171505
depth 13: 1777470
depth 14: 1704266
depth 15: 638212
depth 16: 546459
depth 17: 421787
depth 18: 282931
depth 19: 167901
depth 20: 96467
depth 21: 62800
depth 22: 32861
depth 23: 11877
depth 24: 4852
depth 25: 1855
depth 26: 53
depth 27: 45
depth 28: 5
depth 29: 0
Total: 74725653
------------------
ST read accesses: 59696922
ST write accesses: 82994
PT read accesses: 852280053
PT write accesses: 22524793
FILTER read accesses: 267021500
FILTER write accesses: 21301639
GHR read accesses: 35818653
GHR write accesses: 5751231
PERC read accesses: 6092802630
PERC write accesses: 48761171
GHR counter read accesses: 119559832
GHR counter write accesses: 70799713
GHR ip read accesses: 197962875
GHR ip write accesses: 239119664
ST tag read accesses: 22034024108
ST tag write accesses: 167997841

DRAM Statistics
 CHANNEL 0
 RQ ROW_BUFFER_HIT:    1543337  ROW_BUFFER_MISS:    2449821
 DBUS_CONGESTED:      23397
 WQ ROW_BUFFER_HIT:     362410  ROW_BUFFER_MISS:     832253  FULL:          0

 AVG_CONGESTED_CYCLE: 4
 All warmup complete: 2
Channel 0 Bank busy for read cycles: 0
Channel 0 Bank busy for write cycles: 0
Channel 0
Rank 0
0banks busy for read cycles: 53512349
0banks busy for write cycles: 76329
1banks busy for read cycles: 57835919
1banks busy for write cycles: 10627363
2banks busy for read cycles: 29900948
2banks busy for write cycles: 8105150
3banks busy for read cycles: 20900403
3banks busy for write cycles: 6927658
4banks busy for read cycles: 20774849
4banks busy for write cycles: 6537210
5banks busy for read cycles: 22994567
5banks busy for write cycles: 6231808
6banks busy for read cycles: 6894758
6banks busy for write cycles: 6409258
7banks busy for read cycles: 2643711
7banks busy for write cycles: 7925250
8banks busy for read cycles: 824710
8banks busy for write cycles: 15571660

CPU 0 Branch Prediction Accuracy: 99.9949% MPKI: 0.01412 Average ROB Occupancy at Mispredict: 187.106
Branch types
NOT_BRANCH: 144641822 72.3209%
BRANCH_DIRECT_JUMP: 138 6.9e-05%
BRANCH_INDIRECT: 0 0%
BRANCH_CONDITIONAL: 51820115 25.9101%
BRANCH_DIRECT_CALL: 884508 0.442254%
BRANCH_INDIRECT_CALL: 884370 0.442185%
BRANCH_RETURN: 1768878 0.884439%
BRANCH_OTHER: 0 0%

DRAM PAGES: 1048576
Allocated PAGES: 1485
