Initialize SIGNATURE TABLE
ST_SET: 1
ST_WAY: 256
ST_TAG_BIT: 16
ST_TAG_MASK: ffff

Initialize PATTERN TABLE
PT_SET: 512
PT_WAY: 4
SIG_DELTA_BIT: 7
C_SIG_BIT: 4
C_DELTA_BIT: 4

Initialize PREFETCH FILTER
FILTER_SET: 1024

Initialize PERCEPTRON
PERC_ENTRIES: 4096
PERC_FEATURES: 9

*** ChampSim Multicore Out-of-Order Simulator ***

Warmup Instructions: 50000000
Simulation Instructions: 200000000
Number of CPUs: 1
LLC sets: 2048
LLC ways: 16
L0D sets: 16
L0D ways: 2
ROB size: 352
LQ size: 128
SQ size: 72
Secure Berti: OFF
Berti: OFF
Berti Fill: OFF
On commit prefetching: ON
Hit-based filter: ON
Time-guarding: ON
Free-slotting: ON
Leap-frogging: ON
Train prefetcher on L0D bypass: OFF
No translation penalty for prefetchers: OFF
Prefetch to L0D only: OFF
Prefetch to L1D only: OFF
Clean evictions: ON
Commit loads: ON
Commit write: ON
Fill commit loads to L2C, LLC: ON
DRAM IO FREQUENCY: 6400
ROB SIZE: 352
Off-chip DRAM Size: 4096 MB Channels: 1 Width: 64-bit Data Rate: 6400 MT/s
CPU 0 runs /home/sumon/secure_berti/GhostMinion/../../traces/spec/623.xalancbmk_s-10B.champsimtrace.xz
.xz
BTB has LRU replacement policy
ITLB has LRU replacement policy
DTLB has LRU replacement policy
STLB has LRU replacement policy
L1I has LRU replacement policy
L0D has LRU replacement policy
L1D has LRU replacement policy
PERC_ENTRIES: 4096
L2C has LRU replacement policy
LLC has LRU replacement policy
Heartbeat CPU 0 instructions: 10000003 cycles: 4981562 heartbeat IPC: 2.0074 cumulative IPC: 2.0074 (Simulation time: 0 hr 0 min 39 sec) 
Heartbeat CPU 0 instructions: 20000000 cycles: 10034194 heartbeat IPC: 1.97917 cumulative IPC: 1.99318 (Simulation time: 0 hr 1 min 18 sec) 
Heartbeat CPU 0 instructions: 30000001 cycles: 15156232 heartbeat IPC: 1.95235 cumulative IPC: 1.97938 (Simulation time: 0 hr 1 min 56 sec) 
Heartbeat CPU 0 instructions: 40000000 cycles: 20237711 heartbeat IPC: 1.96793 cumulative IPC: 1.97651 (Simulation time: 0 hr 2 min 34 sec) 
Heartbeat CPU 0 instructions: 50000000 cycles: 25577622 heartbeat IPC: 1.87269 cumulative IPC: 1.95483 (Simulation time: 0 hr 3 min 14 sec) 

Warmup complete CPU 0 instructions: 50000002 cycles: 25577627 (Simulation time: 0 hr 3 min 14 sec) 

Heartbeat CPU 0 instructions: 60000002 cycles: 65111149 heartbeat IPC: 0.25295 cumulative IPC: 0.25295 (Simulation time: 0 hr 4 min 17 sec) 
Heartbeat CPU 0 instructions: 70000000 cycles: 104685388 heartbeat IPC: 0.25269 cumulative IPC: 0.25282 (Simulation time: 0 hr 5 min 21 sec) 
Heartbeat CPU 0 instructions: 80000003 cycles: 144490878 heartbeat IPC: 0.251222 cumulative IPC: 0.252285 (Simulation time: 0 hr 6 min 24 sec) 
Heartbeat CPU 0 instructions: 90000002 cycles: 180561863 heartbeat IPC: 0.277231 cumulative IPC: 0.258091 (Simulation time: 0 hr 7 min 23 sec) 
Heartbeat CPU 0 instructions: 100000003 cycles: 220274739 heartbeat IPC: 0.251808 cumulative IPC: 0.256809 (Simulation time: 0 hr 8 min 26 sec) 
Heartbeat CPU 0 instructions: 110000000 cycles: 253480966 heartbeat IPC: 0.301148 cumulative IPC: 0.26327 (Simulation time: 0 hr 9 min 23 sec) 
Heartbeat CPU 0 instructions: 120000001 cycles: 288173133 heartbeat IPC: 0.28825 cumulative IPC: 0.26657 (Simulation time: 0 hr 10 min 22 sec) 
Heartbeat CPU 0 instructions: 130000000 cycles: 331402753 heartbeat IPC: 0.231323 cumulative IPC: 0.261587 (Simulation time: 0 hr 11 min 28 sec) 
Heartbeat CPU 0 instructions: 140000003 cycles: 371980267 heartbeat IPC: 0.246442 cumulative IPC: 0.259813 (Simulation time: 0 hr 12 min 32 sec) 
Heartbeat CPU 0 instructions: 150000003 cycles: 404006273 heartbeat IPC: 0.312246 cumulative IPC: 0.264251 (Simulation time: 0 hr 13 min 27 sec) 
Heartbeat CPU 0 instructions: 160000001 cycles: 445544478 heartbeat IPC: 0.240742 cumulative IPC: 0.261925 (Simulation time: 0 hr 14 min 32 sec) 
Heartbeat CPU 0 instructions: 170000001 cycles: 482963176 heartbeat IPC: 0.267246 cumulative IPC: 0.262361 (Simulation time: 0 hr 15 min 32 sec) 
Heartbeat CPU 0 instructions: 180000000 cycles: 518269531 heartbeat IPC: 0.283235 cumulative IPC: 0.263857 (Simulation time: 0 hr 16 min 28 sec) 
Heartbeat CPU 0 instructions: 190000001 cycles: 553459673 heartbeat IPC: 0.284171 cumulative IPC: 0.265211 (Simulation time: 0 hr 17 min 25 sec) 
Heartbeat CPU 0 instructions: 200000000 cycles: 590266650 heartbeat IPC: 0.271688 cumulative IPC: 0.265633 (Simulation time: 0 hr 18 min 22 sec) 
Heartbeat CPU 0 instructions: 210000002 cycles: 629406443 heartbeat IPC: 0.255495 cumulative IPC: 0.264976 (Simulation time: 0 hr 19 min 21 sec) 
Heartbeat CPU 0 instructions: 220000000 cycles: 667728539 heartbeat IPC: 0.260946 cumulative IPC: 0.264735 (Simulation time: 0 hr 20 min 17 sec) 
Heartbeat CPU 0 instructions: 230000002 cycles: 702734975 heartbeat IPC: 0.285662 cumulative IPC: 0.265817 (Simulation time: 0 hr 21 min 12 sec) 
Heartbeat CPU 0 instructions: 240000002 cycles: 743107692 heartbeat IPC: 0.247692 cumulative IPC: 0.264797 (Simulation time: 0 hr 22 min 11 sec) 
Heartbeat CPU 0 instructions: 250000003 cycles: 782378484 heartbeat IPC: 0.254642 cumulative IPC: 0.26427 (Simulation time: 0 hr 23 min 8 sec) 
Finished CPU 0 instructions: 200000001 cycles: 756800857 cumulative IPC: 0.26427 (Simulation time: 0 hr 23 min 8 sec) 
 Instruction ID: 250000384

ChampSim completed all CPUs

Region of Interest Statistics

CPU 0 cumulative IPC: 0.26427 instructions: 200000001 cycles: 756800857
ITLB SPEC fills:          0  NON-SPEC fills:          0
ITLB Test counter :          0
ITLB Leapfrog:          0
ITLB MSHR merge:          0
ITLB TOTAL     ACCESS:   32665099  HIT:   32533502  MISS:     131597  HIT %:    99.5971  MISS %:   0.402867   MPKI: 0.657985
ITLB LOAD TRANSLATION NON_SPEC    ACCESS:   32665099  HIT:   32533502  MISS:     131597  HIT %:    99.5971  MISS %:   0.402867   MPKI: 0.657985
ITLB PREFETCH  REQUESTED:          0  ISSUED:          0  USEFUL:          0  USELESS:          0
ITLB USEFUL LOAD PREFETCHES:          0 PREFETCH ISSUED TO LOWER LEVEL:          0  ACCURACY: -nan
ITLB TIMELY PREFETCHES:          0 LATE PREFETCHES: 0 DROPPED PREFETCHES: 0
ITLB COMMIT LATE PREFETCHES: 0 MISSED OPPORTUNITY: 0 LATE IN PQ: 0 UNCOVERED: 0
ITLB COMMIT LATE MSHR PREFETCHES: 0
ITLB MPKI TOTAL: 0 MSHR LATE: 0 PQ LATE: 0 COMMIT LATE: 0 MISSED OPPORTUNITY: 0 UNCOVERED: 0
ITLB PREFETCHES SAME FILL-ORIGIN LEVEL: 0 DIFFERENT FILL-ORIGIN LEVEL: 0
ITLB AVERAGE MISS LATENCY: 22.6487 cycles
ITLB AVERAGE MISS LATENCY LOAD: -nan cycles
ITLB AVERAGE MISS LATENCY PREFETCH: -nan cycles
ITLB AVERAGE MSHR OCCUPANCY: 0.00213811
ITLB MSHR FULL: 0
ITLB RQ	ACCESS:   38470017	FORWARD:          0	MERGED:    5771580	TO_CACHE:   32698437

DTLB SPEC fills:          0  NON-SPEC fills:          0
DTLB Test counter :          0
DTLB Leapfrog:          0
DTLB MSHR merge:          0
DTLB TOTAL     ACCESS:   43733658  HIT:   42414987  MISS:    1318671  HIT %:    96.9848  MISS %:    3.01523   MPKI: 6.59335
DTLB LOAD TRANSLATION NON_SPEC    ACCESS:   43733658  HIT:   42414987  MISS:    1318671  HIT %:    96.9848  MISS %:    3.01523   MPKI: 6.59335
DTLB PREFETCH  REQUESTED:          0  ISSUED:          0  USEFUL:          0  USELESS:          0
DTLB USEFUL LOAD PREFETCHES:          0 PREFETCH ISSUED TO LOWER LEVEL:          0  ACCURACY: -nan
DTLB TIMELY PREFETCHES:          0 LATE PREFETCHES: 0 DROPPED PREFETCHES: 0
DTLB COMMIT LATE PREFETCHES: 0 MISSED OPPORTUNITY: 0 LATE IN PQ: 0 UNCOVERED: 0
DTLB COMMIT LATE MSHR PREFETCHES: 0
DTLB MPKI TOTAL: 0 MSHR LATE: 0 PQ LATE: 0 COMMIT LATE: 0 MISSED OPPORTUNITY: 0 UNCOVERED: 0
DTLB PREFETCHES SAME FILL-ORIGIN LEVEL: 0 DIFFERENT FILL-ORIGIN LEVEL: 0
DTLB AVERAGE MISS LATENCY: 110.646 cycles
DTLB AVERAGE MISS LATENCY LOAD: -nan cycles
DTLB AVERAGE MISS LATENCY PREFETCH: -nan cycles
DTLB AVERAGE MSHR OCCUPANCY: 0.0543475
DTLB MSHR FULL: 0
DTLB RQ	ACCESS:   48993009	FORWARD:          0	MERGED:    4959829	TO_CACHE:   44033180

STLB SPEC fills:          0  NON-SPEC fills:          0
STLB Test counter :          0
STLB Leapfrog:          0
STLB MSHR merge:          0
STLB TOTAL     ACCESS:    1450268  HIT:     486308  MISS:     963960  HIT %:    33.5323  MISS %:    66.4677   MPKI: 4.8198
STLB LOAD TRANSLATION NON_SPEC    ACCESS:    1450268  HIT:     486308  MISS:     963960  HIT %:    33.5323  MISS %:    66.4677   MPKI: 4.8198
STLB PREFETCH  REQUESTED:          0  ISSUED:          0  USEFUL:          0  USELESS:          0
STLB USEFUL LOAD PREFETCHES:          0 PREFETCH ISSUED TO LOWER LEVEL:          0  ACCURACY: -nan
STLB TIMELY PREFETCHES:          0 LATE PREFETCHES: 0 DROPPED PREFETCHES: 0
STLB COMMIT LATE PREFETCHES: 0 MISSED OPPORTUNITY: 0 LATE IN PQ: 0 UNCOVERED: 0
STLB COMMIT LATE MSHR PREFETCHES: 0
STLB MPKI TOTAL: 0 MSHR LATE: 0 PQ LATE: 0 COMMIT LATE: 0 MISSED OPPORTUNITY: 0 UNCOVERED: 0
STLB PREFETCHES SAME FILL-ORIGIN LEVEL: 0 DIFFERENT FILL-ORIGIN LEVEL: 0
STLB AVERAGE MISS LATENCY: 140.865 cycles
STLB AVERAGE MISS LATENCY LOAD: -nan cycles
STLB AVERAGE MISS LATENCY PREFETCH: -nan cycles
STLB AVERAGE MSHR OCCUPANCY: 0.131672
STLB MSHR FULL: 0
STLB RQ	ACCESS:    1450268	FORWARD:          0	MERGED:          0	TO_CACHE:    1450268

STLB Hit, L1D data hit: 0
STLB Hit, L2C data hit: 0
STLB Hit, LLC data hit: 0
STLB Hit, LLC data miss: 0
STLB STLB hints to L2: 0
L0D SPEC fills:   18387582  NON-SPEC fills:          0
L0D TimeGuard Request with older TS:     142974 Restricted eviction:      45259 read:      64787
L0D Test counter :          0
L0D Leapfrog:          0
L0D MSHR merge:    2922473
L0D TOTAL     ACCESS:   36164111  HIT:    7123346  MISS:   29040765  HIT %:    19.6973  MISS %:    80.3027   MPKI: 145.204
L0D LOAD      TOTAL       ACCESS:   36164111  HIT:    7123346  MISS:   29040765  HIT %:    19.6973  MISS %:    80.3027   MPKI: 145.204
L0D LOAD      NON_SPEC    ACCESS:   10651443  HIT:      43514  MISS:   10607929  HIT %:   0.408527  MISS %:    99.5915   MPKI: 53.0396
L0D LOAD      SPEC        ACCESS:   25512668  HIT:    7079832  MISS:   18432836  HIT %:    27.7503  MISS %:    72.2497   MPKI: 92.1642
L0D PREFETCH  REQUESTED:          0  ISSUED:          0  USEFUL:          0  USELESS:          0
L0D USEFUL LOAD PREFETCHES:          0 PREFETCH ISSUED TO LOWER LEVEL:          0  ACCURACY: -nan
L0D TIMELY PREFETCHES:          0 LATE PREFETCHES: 0 DROPPED PREFETCHES: 0
L0D COMMIT LATE PREFETCHES: 0 MISSED OPPORTUNITY: 0 LATE IN PQ: 0 UNCOVERED: 0
L0D COMMIT LATE MSHR PREFETCHES: 0
L0D MPKI TOTAL: 159.816 MSHR LATE: 0 PQ LATE: 0 COMMIT LATE: 0 MISSED OPPORTUNITY: 0 UNCOVERED: 0
L0D PREFETCHES SAME FILL-ORIGIN LEVEL: 0 DIFFERENT FILL-ORIGIN LEVEL: 0
L0D AVERAGE MISS LATENCY: 32.1587 cycles
L0D AVERAGE MISS LATENCY LOAD: 32.1587 cycles
L0D AVERAGE MISS LATENCY PREFETCH: -nan cycles
L0D AVERAGE MSHR OCCUPANCY: 0.730964
L0D MSHR FULL: 0.00185827
L0D RQ	ACCESS:   58706173	FORWARD:          0	MERGED:   19619588	TO_CACHE:   39086585
L0D WQ	ACCESS:    9906424	FORWARD:          0	MERGED:          0	TO_CACHE:    9906424

L1D SPEC fills:          0  NON-SPEC fills:    1837550
L1D Test counter :          0
L1D Leapfrog:          0
L1D MSHR merge:       3888
L1D TOTAL     ACCESS:   46353877  HIT:   37464012  MISS:    8889865  HIT %:    80.8217  MISS %:    19.1783   MPKI: 44.4493
L1D LOAD      TOTAL       ACCESS:   29036878  HIT:   23674223  MISS:    5362655  HIT %:    81.5316  MISS %:    18.4684   MPKI: 26.8133
L1D LOAD      NON_SPEC    ACCESS:   10605808  HIT:    8768258  MISS:    1837550  HIT %:    82.6741  MISS %:    17.3259   MPKI: 9.18775
L1D LOAD      SPEC        ACCESS:   18431070  HIT:   14905965  MISS:    3525105  HIT %:    80.8741  MISS %:    19.1259   MPKI: 17.6255
L1D RFO       NON_SPEC    ACCESS:    9657266  HIT:    9576418  MISS:      80848  HIT %:    99.1628  MISS %:   0.837173   MPKI: 0.40424
L1D COMMIT LOAD NON_SPEC    ACCESS:    4065096  HIT:    4055376  MISS:       9720  HIT %:    99.7609  MISS %:   0.239109   MPKI: 0.0486
L1D COMMIT WRITE NON_SPEC    ACCESS:    3594637  HIT:     157995  MISS:    3436642  HIT %:     4.3953  MISS %:    95.6047   MPKI: 17.1832
L1D PREFETCH  REQUESTED:          0  ISSUED:          0  USEFUL:          0  USELESS:          0
L1D USEFUL LOAD PREFETCHES:          0 PREFETCH ISSUED TO LOWER LEVEL:          0  ACCURACY: -nan
L1D TIMELY PREFETCHES:          0 LATE PREFETCHES: 0 DROPPED PREFETCHES: 0
L1D COMMIT LATE PREFETCHES: 0 MISSED OPPORTUNITY: 0 LATE IN PQ: 0 UNCOVERED: 0
L1D COMMIT LATE MSHR PREFETCHES: 0
L1D MPKI TOTAL: 26.8327 MSHR LATE: 0 PQ LATE: 0 COMMIT LATE: 0 MISSED OPPORTUNITY: 0 UNCOVERED: 0
L1D PREFETCHES SAME FILL-ORIGIN LEVEL: 0 DIFFERENT FILL-ORIGIN LEVEL: 0
L1D AVERAGE MISS LATENCY: 89.34 cycles
L1D AVERAGE MISS LATENCY LOAD: 146.669 cycles
L1D AVERAGE MISS LATENCY PREFETCH: -nan cycles
L1D AVERAGE MSHR OCCUPANCY: 0.28694
L1D MSHR FULL: 9.60621e-05
L1D RQ	ACCESS:   37986264	FORWARD:          0	MERGED:    4869402	TO_CACHE:   33111252
L1D WQ	ACCESS:   13498175	FORWARD:       5610	MERGED:      52141	TO_CACHE:   13446034

L1D UNIQUE REGIONS ACCESSED: 0
L1D REGIONS CONFLICTS: 0
L1D Cross Page Prefetch Requests: 0
L1D Same Page Prefetch Requests: 0
L1D ROI Sum of L1D PQ occupancy: 0
L1D PREFETCHES PUSHED FROM L2C: 0
L1I SPEC fills:          0  NON-SPEC fills:          0
L1I Test counter :          0
L1I Leapfrog:          0
L1I MSHR merge:     224493
L1I TOTAL     ACCESS:   38245523  HIT:   37531871  MISS:     713652  HIT %:     98.134  MISS %:    1.86598   MPKI: 3.56826
L1I LOAD      TOTAL       ACCESS:   38245523  HIT:   37531871  MISS:     713652  HIT %:     98.134  MISS %:    1.86598   MPKI: 3.56826
L1I LOAD      NON_SPEC    ACCESS:   38245523  HIT:   37531871  MISS:     713652  HIT %:     98.134  MISS %:    1.86598   MPKI: 3.56826
L1I PREFETCH  REQUESTED:          0  ISSUED:          0  USEFUL:          0  USELESS:          0
L1I USEFUL LOAD PREFETCHES:          0 PREFETCH ISSUED TO LOWER LEVEL:          0  ACCURACY: -nan
L1I TIMELY PREFETCHES:          0 LATE PREFETCHES: 0 DROPPED PREFETCHES: 0
L1I COMMIT LATE PREFETCHES: 0 MISSED OPPORTUNITY: 0 LATE IN PQ: 0 UNCOVERED: 0
L1I COMMIT LATE MSHR PREFETCHES: 0
L1I MPKI TOTAL: 4.69072 MSHR LATE: 0 PQ LATE: 0 COMMIT LATE: 0 MISSED OPPORTUNITY: 0 UNCOVERED: 0
L1I PREFETCHES SAME FILL-ORIGIN LEVEL: 0 DIFFERENT FILL-ORIGIN LEVEL: 0
L1I AVERAGE MISS LATENCY: 44.8379 cycles
L1I AVERAGE MISS LATENCY LOAD: 44.8379 cycles
L1I AVERAGE MISS LATENCY PREFETCH: -nan cycles
L1I AVERAGE MSHR OCCUPANCY: 0.0273426
L1I MSHR FULL: 0
L1I RQ	ACCESS:   66045502	FORWARD:          0	MERGED:   27575485	TO_CACHE:   38470017

BTB SPEC fills:          0  NON-SPEC fills:          0
BTB Test counter :          0
BTB Leapfrog:          0
BTB MSHR merge:          0
BTB TOTAL     ACCESS:   33166957  HIT:   32847077  MISS:     319880  HIT %:    99.0355  MISS %:   0.964454   MPKI: 1.5994
BTB BRANCH_DIRECT_JUMP	ACCESS:     525801  HIT:     523851  MISS:       1950
BTB BRANCH_INDIRECT	ACCESS:      94835  HIT:      37758  MISS:      57077
BTB BRANCH_CONDITIONAL	ACCESS:   27817701  HIT:   27808168  MISS:       9533
BTB BRANCH_DIRECT_CALL	ACCESS:    1305271  HIT:    1301665  MISS:       3606
BTB BRANCH_INDIRECT_CALL	ACCESS:    1059041  HIT:    1046752  MISS:      12289
BTB BRANCH_RETURN	ACCESS:    2364308  HIT:    2128883  MISS:     235425
BTB BRANCH_OTHER ACCESS:          0  HIT:          0  MISS:          0

L2C SPEC fills:          0  NON-SPEC fills:    1398488
L2C Test counter :          0
L2C Leapfrog:          0
L2C MSHR merge:     285475
L2C TOTAL     ACCESS:   25435178  HIT:   13707700  MISS:   11727478  HIT %:    53.8927  MISS %:    46.1073   MPKI: 58.6374
L2C LOAD      TOTAL       ACCESS:    6076159  HIT:    1632959  MISS:    4443200  HIT %:    26.8749  MISS %:    73.1251   MPKI: 22.216
L2C LOAD      NON_SPEC    ACCESS:    2551199  HIT:     962240  MISS:    1588959  HIT %:    37.7172  MISS %:    62.2828   MPKI: 7.94479
L2C LOAD      SPEC        ACCESS:    3524960  HIT:     670719  MISS:    2854241  HIT %:    19.0277  MISS %:    80.9723   MPKI: 14.2712
L2C RFO       NON_SPEC    ACCESS:      80798  HIT:      44188  MISS:      36610  HIT %:    54.6895  MISS %:    45.3105   MPKI: 0.18305
L2C PREFETCH  NON_SPEC    ACCESS:   11482078  HIT:    6073336  MISS:    5408742  HIT %:     52.894  MISS %:     47.106   MPKI: 27.0437
L2C WRITEBACK NON_SPEC    ACCESS:     102311  HIT:     102035  MISS:        276  HIT %:    99.7302  MISS %:   0.269766   MPKI: 0.00138
L2C CLEAN_EVICTION NON_SPEC    ACCESS:    2864312  HIT:    1262199  MISS:    1602113  HIT %:    44.0664  MISS %:    55.9336   MPKI: 8.01056
L2C COMMIT LOAD NON_SPEC    ACCESS:       9720  HIT:       6885  MISS:       2835  HIT %:    70.8333  MISS %:    29.1667   MPKI: 0.014175
L2C LOAD TRANSLATION NON_SPEC    ACCESS:    4819800  HIT:    4586098  MISS:     233702  HIT %:    95.1512  MISS %:    4.84879   MPKI: 1.16851
L2C PREFETCH  REQUESTED:   15525870  ISSUED:   15524288  USEFUL:     776314  USELESS:    4633693
L2C USEFUL LOAD PREFETCHES:     776314 PREFETCH ISSUED TO LOWER LEVEL:    6953680  ACCURACY: 11.1641
L2C TIMELY PREFETCHES:     776314 LATE PREFETCHES: 287822 DROPPED PREFETCHES: 0
L2C COMMIT LATE PREFETCHES: 0 MISSED OPPORTUNITY: 0 LATE IN PQ: 0 UNCOVERED: 0
L2C COMMIT LATE MSHR PREFETCHES: 0
L2C MPKI TOTAL: 22.216 MSHR LATE: 1.43911 PQ LATE: 0 COMMIT LATE: 0 MISSED OPPORTUNITY: 0 UNCOVERED: 0
L2C PREFETCHES SAME FILL-ORIGIN LEVEL: 5696564 DIFFERENT FILL-ORIGIN LEVEL: 1257116
L2C AVERAGE MISS LATENCY: 151.467 cycles
L2C AVERAGE MISS LATENCY LOAD: 167.38 cycles
L2C AVERAGE MISS LATENCY PREFETCH: 180.244 cycles
L2C AVERAGE MSHR OCCUPANCY: 2.01219
L2C MSHR FULL: 5.93422e-05
L2C RQ	ACCESS:   10986676	FORWARD:          0	MERGED:          0	TO_CACHE:   10986478
L2C WQ	ACCESS:    2966623	FORWARD:        207	MERGED:          0	TO_CACHE:    2966623
L2C PQ	ACCESS:   15524288	FORWARD:          0	MERGED:    2030015	TO_CACHE:   13494264

L2C Instructions Evicting Data 181425
L2C Translations Evicting Data 225253
L2C Data Evicting Data 6515989
L2C Instructions Evicting Instructions 5926
L2C Translations Evicting Instructions 2999
L2C Data Evicting Instructions 150976
L2C Instructions Evicting Translations 3120
L2C Translations Evicting Translations 5450
L2C Data Evicting Translations 179710
L2C Dense regions hint from L2: 0
PSCL5 SPEC fills:          0  NON-SPEC fills:          0
PSCL5 Test counter :          0
PSCL5 Leapfrog:          0
PSCL5 MSHR merge:          0
PSCL5 TOTAL     ACCESS:          0  HIT:          0  MISS:          0  HIT %:       -nan  MISS %:       -nan   MPKI: 0
PSCL5 PREFETCH  REQUESTED:          0  ISSUED:          0  USEFUL:          0  USELESS:          0
PSCL5 USEFUL LOAD PREFETCHES:          0 PREFETCH ISSUED TO LOWER LEVEL:          0  ACCURACY: -nan
PSCL5 TIMELY PREFETCHES:          0 LATE PREFETCHES: 0 DROPPED PREFETCHES: 0
PSCL5 COMMIT LATE PREFETCHES: 0 MISSED OPPORTUNITY: 0 LATE IN PQ: 0 UNCOVERED: 0
PSCL5 COMMIT LATE MSHR PREFETCHES: 0
PSCL5 MPKI TOTAL: 0 MSHR LATE: 0 PQ LATE: 0 COMMIT LATE: 0 MISSED OPPORTUNITY: 0 UNCOVERED: 0
PSCL5 PREFETCHES SAME FILL-ORIGIN LEVEL: 0 DIFFERENT FILL-ORIGIN LEVEL: 0

PSCL4 SPEC fills:          0  NON-SPEC fills:          0
PSCL4 Test counter :          0
PSCL4 Leapfrog:          0
PSCL4 MSHR merge:          0
PSCL4 TOTAL     ACCESS:          0  HIT:          0  MISS:          0  HIT %:       -nan  MISS %:       -nan   MPKI: 0
PSCL4 PREFETCH  REQUESTED:          0  ISSUED:          0  USEFUL:          0  USELESS:          0
PSCL4 USEFUL LOAD PREFETCHES:          0 PREFETCH ISSUED TO LOWER LEVEL:          0  ACCURACY: -nan
PSCL4 TIMELY PREFETCHES:          0 LATE PREFETCHES: 0 DROPPED PREFETCHES: 0
PSCL4 COMMIT LATE PREFETCHES: 0 MISSED OPPORTUNITY: 0 LATE IN PQ: 0 UNCOVERED: 0
PSCL4 COMMIT LATE MSHR PREFETCHES: 0
PSCL4 MPKI TOTAL: 0 MSHR LATE: 0 PQ LATE: 0 COMMIT LATE: 0 MISSED OPPORTUNITY: 0 UNCOVERED: 0
PSCL4 PREFETCHES SAME FILL-ORIGIN LEVEL: 0 DIFFERENT FILL-ORIGIN LEVEL: 0

PSCL3 SPEC fills:          0  NON-SPEC fills:          0
PSCL3 Test counter :          0
PSCL3 Leapfrog:          0
PSCL3 MSHR merge:          0
PSCL3 TOTAL     ACCESS:          0  HIT:          0  MISS:          0  HIT %:       -nan  MISS %:       -nan   MPKI: 0
PSCL3 PREFETCH  REQUESTED:          0  ISSUED:          0  USEFUL:          0  USELESS:          0
PSCL3 USEFUL LOAD PREFETCHES:          0 PREFETCH ISSUED TO LOWER LEVEL:          0  ACCURACY: -nan
PSCL3 TIMELY PREFETCHES:          0 LATE PREFETCHES: 0 DROPPED PREFETCHES: 0
PSCL3 COMMIT LATE PREFETCHES: 0 MISSED OPPORTUNITY: 0 LATE IN PQ: 0 UNCOVERED: 0
PSCL3 COMMIT LATE MSHR PREFETCHES: 0
PSCL3 MPKI TOTAL: 0 MSHR LATE: 0 PQ LATE: 0 COMMIT LATE: 0 MISSED OPPORTUNITY: 0 UNCOVERED: 0
PSCL3 PREFETCHES SAME FILL-ORIGIN LEVEL: 0 DIFFERENT FILL-ORIGIN LEVEL: 0

PSCL2 SPEC fills:          0  NON-SPEC fills:          0
PSCL2 Test counter :          0
PSCL2 Leapfrog:          0
PSCL2 MSHR merge:          0
PSCL2 TOTAL     ACCESS:          0  HIT:          0  MISS:          0  HIT %:       -nan  MISS %:       -nan   MPKI: 0
PSCL2 PREFETCH  REQUESTED:          0  ISSUED:          0  USEFUL:          0  USELESS:          0
PSCL2 USEFUL LOAD PREFETCHES:          0 PREFETCH ISSUED TO LOWER LEVEL:          0  ACCURACY: -nan
PSCL2 TIMELY PREFETCHES:          0 LATE PREFETCHES: 0 DROPPED PREFETCHES: 0
PSCL2 COMMIT LATE PREFETCHES: 0 MISSED OPPORTUNITY: 0 LATE IN PQ: 0 UNCOVERED: 0
PSCL2 COMMIT LATE MSHR PREFETCHES: 0
PSCL2 MPKI TOTAL: 0 MSHR LATE: 0 PQ LATE: 0 COMMIT LATE: 0 MISSED OPPORTUNITY: 0 UNCOVERED: 0
PSCL2 PREFETCHES SAME FILL-ORIGIN LEVEL: 0 DIFFERENT FILL-ORIGIN LEVEL: 0

LLC SPEC fills:          0  NON-SPEC fills:    1104364
LLC Test counter :          0
LLC Leapfrog:          0
LLC MSHR merge:       5832
LLC TOTAL     ACCESS:   14117072  HIT:    2940700  MISS:   11176372  HIT %:    20.8308  MISS %:    79.1692   MPKI: 55.8819
LLC LOAD      TOTAL       ACCESS:    4157721  HIT:     432795  MISS:    3724926  HIT %:    10.4094  MISS %:    89.5906   MPKI: 18.6246
LLC LOAD      NON_SPEC    ACCESS:    1403245  HIT:     205471  MISS:    1197774  HIT %:    14.6426  MISS %:    85.3574   MPKI: 5.98887
LLC LOAD      SPEC        ACCESS:    2754476  HIT:     227324  MISS:    2527152  HIT %:    8.25289  MISS %:    91.7471   MPKI: 12.6358
LLC RFO       NON_SPEC    ACCESS:      35067  HIT:       7320  MISS:      27747  HIT %:    20.8743  MISS %:    79.1257   MPKI: 0.138735
LLC PREFETCH  NON_SPEC    ACCESS:    6788155  HIT:     940715  MISS:    5847440  HIT %:    13.8582  MISS %:    86.1418   MPKI: 29.2372
LLC WRITEBACK NON_SPEC    ACCESS:      69902  HIT:      69637  MISS:        265  HIT %:    99.6209  MISS %:   0.379102   MPKI: 0.001325
LLC CLEAN_EVICTION NON_SPEC    ACCESS:    2830497  HIT:    1480169  MISS:    1350328  HIT %:    52.2936  MISS %:    47.7064   MPKI: 6.75164
LLC COMMIT LOAD NON_SPEC    ACCESS:       2028  HIT:        905  MISS:       1123  HIT %:    44.6252  MISS %:    55.3748   MPKI: 0.005615
LLC LOAD TRANSLATION NON_SPEC    ACCESS:     233702  HIT:       9159  MISS:     224543  HIT %:    3.91909  MISS %:    96.0809   MPKI: 1.12271
LLC PREFETCH  REQUESTED:          0  ISSUED:          0  USEFUL:     151564  USELESS:    5700632
LLC USEFUL LOAD PREFETCHES:     151564 PREFETCH ISSUED TO LOWER LEVEL:    5853321  ACCURACY: 2.58937
LLC TIMELY PREFETCHES:     151564 LATE PREFETCHES: 5881 DROPPED PREFETCHES: 0
LLC COMMIT LATE PREFETCHES: 0 MISSED OPPORTUNITY: 0 LATE IN PQ: 0 UNCOVERED: 0
LLC COMMIT LATE MSHR PREFETCHES: 0
LLC MPKI TOTAL: 18.6246 MSHR LATE: 0.029405 PQ LATE: 0 COMMIT LATE: 0 MISSED OPPORTUNITY: 0 UNCOVERED: 0
LLC PREFETCHES SAME FILL-ORIGIN LEVEL: 958528 DIFFERENT FILL-ORIGIN LEVEL: 0
LLC AVERAGE MISS LATENCY: 149.771 cycles
LLC AVERAGE MISS LATENCY LOAD: 161.426 cycles
LLC AVERAGE MISS LATENCY PREFETCH: 175.007 cycles
LLC AVERAGE MSHR OCCUPANCY: 1.85984
LLC MSHR FULL: 0
LLC RQ	ACCESS:    4428526	FORWARD:          0	MERGED:          0	TO_CACHE:    4428519
LLC WQ	ACCESS:    2900400	FORWARD:         20	MERGED:          0	TO_CACHE:    2900400
LLC PQ	ACCESS:    6953680	FORWARD:          0	MERGED:      37436	TO_CACHE:    6916231

LLC Dense regions hint to LLC: 0

RAW hits: 282895
Loads Generated: 58989068
Loads sent to L1D: 58706173
Stores Generated: 9906424
Stores sent to L1D: 9906424
Major fault: 0 Minor fault: 11434
Allocated PAGES: 11434
Total Load insts: 73349555
Total Non-spec loads: 11673451
Percentage of speculative loads: 84.0852

LeapFrogging counter: 4253
Commit hits: 18292652 miss: 29741135
Commit hit %: 38.0829 miss %: 61.9171
Commits not translated: 0
Loads retired: 5362654
Stores retired: 9906424
Cache fills: 5362655
L1D response latency: 146.669 cycles
Load retirement latency: 256.101 cycles
OOO test counter: 0
Discarded buffer inserts: 18292652 hits: 55549 hit %: 0.303668
Filter prediction accuracy: 99.2197
------------------
Depth Distribution
------------------
depth 0: 19147336
depth 1: 21764452
depth 2: 29747367
depth 3: 3071670
depth 4: 36408
depth 5: 5984
depth 6: 3277
depth 7: 2428
depth 8: 2001
depth 9: 675
depth 10: 33
depth 11: 6
depth 12: 0
depth 13: 0
depth 14: 0
depth 15: 0
depth 16: 0
depth 17: 0
depth 18: 0
depth 19: 0
depth 20: 0
depth 21: 0
depth 22: 0
depth 23: 0
depth 24: 0
depth 25: 0
depth 26: 0
depth 27: 0
depth 28: 0
depth 29: 0
Total: 73781637
------------------
ST read accesses: 57940298
ST write accesses: 1048766
PT read accesses: 643165994
PT write accesses: 20454613
FILTER read accesses: 228374753
FILTER write accesses: 61394196
GHR read accesses: 83133748
GHR write accesses: 11468723
PERC read accesses: 4788372483
PERC write accesses: 100681070
GHR counter read accesses: 117978128
GHR counter write accesses: 76903655
GHR ip read accesses: 295301166
GHR ip write accesses: 235956256
ST tag read accesses: 22246504220
ST tag write accesses: 471224781

DRAM Statistics
 CHANNEL 0
 RQ ROW_BUFFER_HIT:    2361043  ROW_BUFFER_MISS:    7464722
 DBUS_CONGESTED:      10471
 WQ ROW_BUFFER_HIT:    1117539  ROW_BUFFER_MISS:    1596315  FULL:          0

 AVG_CONGESTED_CYCLE: 5
 All warmup complete: 2
Channel 0 Bank busy for read cycles: 0
Channel 0 Bank busy for write cycles: 0
Channel 0
Rank 0
0banks busy for read cycles: 103537793
0banks busy for write cycles: 79835
1banks busy for read cycles: 159531901
1banks busy for write cycles: 12983170
2banks busy for read cycles: 123634396
2banks busy for write cycles: 5867878
3banks busy for read cycles: 103354521
3banks busy for write cycles: 4092667
4banks busy for read cycles: 59340640
4banks busy for write cycles: 3576795
5banks busy for read cycles: 30172206
5banks busy for write cycles: 3846630
6banks busy for read cycles: 14670444
6banks busy for write cycles: 6358979
7banks busy for read cycles: 5239543
7banks busy for write cycles: 25319544
8banks busy for read cycles: 1065412
8banks busy for write cycles: 94128504

CPU 0 Branch Prediction Accuracy: 99.7326% MPKI: 0.69165 Average ROB Occupancy at Mispredict: 109.909
Branch types
NOT_BRANCH: 148259765 74.1299%
BRANCH_DIRECT_JUMP: 525801 0.2629%
BRANCH_INDIRECT: 94835 0.0474175%
BRANCH_CONDITIONAL: 46390980 23.1955%
BRANCH_DIRECT_CALL: 1305271 0.652635%
BRANCH_INDIRECT_CALL: 1059041 0.52952%
BRANCH_RETURN: 2364308 1.18215%
BRANCH_OTHER: 0 0%

DRAM PAGES: 1048576
Allocated PAGES: 11434
