Initialize SIGNATURE TABLE
ST_SET: 1
ST_WAY: 256
ST_TAG_BIT: 16
ST_TAG_MASK: ffff

Initialize PATTERN TABLE
PT_SET: 512
PT_WAY: 4
SIG_DELTA_BIT: 7
C_SIG_BIT: 4
C_DELTA_BIT: 4

Initialize PREFETCH FILTER
FILTER_SET: 1024

Initialize PERCEPTRON
PERC_ENTRIES: 4096
PERC_FEATURES: 9

*** ChampSim Multicore Out-of-Order Simulator ***

Warmup Instructions: 50000000
Simulation Instructions: 200000000
Number of CPUs: 1
LLC sets: 2048
LLC ways: 16
L0D sets: 16
L0D ways: 2
ROB size: 352
LQ size: 128
SQ size: 72
Secure Berti: OFF
Berti: OFF
Berti Fill: OFF
On commit prefetching: ON
Hit-based filter: ON
Time-guarding: ON
Free-slotting: ON
Leap-frogging: ON
Train prefetcher on L0D bypass: OFF
No translation penalty for prefetchers: OFF
Prefetch to L0D only: OFF
Prefetch to L1D only: OFF
Clean evictions: ON
Commit loads: ON
Commit write: ON
Fill commit loads to L2C, LLC: ON
DRAM IO FREQUENCY: 6400
ROB SIZE: 352
Off-chip DRAM Size: 4096 MB Channels: 1 Width: 64-bit Data Rate: 6400 MT/s
CPU 0 runs /home/sumon/secure_berti/GhostMinion/../../traces/spec/641.leela_s-1083B.champsimtrace.xz
.xz
BTB has LRU replacement policy
ITLB has LRU replacement policy
DTLB has LRU replacement policy
STLB has LRU replacement policy
L1I has LRU replacement policy
L0D has LRU replacement policy
L1D has LRU replacement policy
PERC_ENTRIES: 4096
L2C has LRU replacement policy
LLC has LRU replacement policy
Heartbeat CPU 0 instructions: 10000000 cycles: 5024649 heartbeat IPC: 1.99019 cumulative IPC: 1.99019 (Simulation time: 0 hr 0 min 37 sec) 
Heartbeat CPU 0 instructions: 20000000 cycles: 10101605 heartbeat IPC: 1.96968 cumulative IPC: 1.97988 (Simulation time: 0 hr 1 min 13 sec) 
Heartbeat CPU 0 instructions: 30000003 cycles: 15231661 heartbeat IPC: 1.9493 cumulative IPC: 1.96958 (Simulation time: 0 hr 1 min 48 sec) 
Heartbeat CPU 0 instructions: 40000003 cycles: 20298515 heartbeat IPC: 1.97361 cumulative IPC: 1.97059 (Simulation time: 0 hr 2 min 24 sec) 
Heartbeat CPU 0 instructions: 50000003 cycles: 25362649 heartbeat IPC: 1.97467 cumulative IPC: 1.9714 (Simulation time: 0 hr 2 min 59 sec) 

Warmup complete CPU 0 instructions: 50000003 cycles: 25362649 (Simulation time: 0 hr 2 min 59 sec) 

Heartbeat CPU 0 instructions: 60000002 cycles: 50500649 heartbeat IPC: 0.397804 cumulative IPC: 0.397804 (Simulation time: 0 hr 3 min 38 sec) 
Heartbeat CPU 0 instructions: 70000000 cycles: 75877078 heartbeat IPC: 0.394066 cumulative IPC: 0.395926 (Simulation time: 0 hr 4 min 16 sec) 
Heartbeat CPU 0 instructions: 80000000 cycles: 100929925 heartbeat IPC: 0.399156 cumulative IPC: 0.396997 (Simulation time: 0 hr 4 min 55 sec) 
Heartbeat CPU 0 instructions: 90000003 cycles: 126632122 heartbeat IPC: 0.389072 cumulative IPC: 0.394986 (Simulation time: 0 hr 5 min 34 sec) 
Heartbeat CPU 0 instructions: 100000002 cycles: 152020692 heartbeat IPC: 0.393878 cumulative IPC: 0.394764 (Simulation time: 0 hr 6 min 13 sec) 
Heartbeat CPU 0 instructions: 110000000 cycles: 176964552 heartbeat IPC: 0.4009 cumulative IPC: 0.395773 (Simulation time: 0 hr 6 min 52 sec) 
Heartbeat CPU 0 instructions: 120000000 cycles: 201817155 heartbeat IPC: 0.402372 cumulative IPC: 0.396703 (Simulation time: 0 hr 7 min 31 sec) 
Heartbeat CPU 0 instructions: 130000001 cycles: 227035488 heartbeat IPC: 0.396537 cumulative IPC: 0.396682 (Simulation time: 0 hr 8 min 11 sec) 
Heartbeat CPU 0 instructions: 140000000 cycles: 252312635 heartbeat IPC: 0.395614 cumulative IPC: 0.396563 (Simulation time: 0 hr 8 min 50 sec) 
Heartbeat CPU 0 instructions: 150000000 cycles: 277370731 heartbeat IPC: 0.399073 cumulative IPC: 0.396813 (Simulation time: 0 hr 9 min 28 sec) 
Heartbeat CPU 0 instructions: 160000000 cycles: 302185453 heartbeat IPC: 0.402987 cumulative IPC: 0.397366 (Simulation time: 0 hr 10 min 8 sec) 
Heartbeat CPU 0 instructions: 170000001 cycles: 327126778 heartbeat IPC: 0.400941 cumulative IPC: 0.397662 (Simulation time: 0 hr 10 min 47 sec) 
Heartbeat CPU 0 instructions: 180000000 cycles: 352242837 heartbeat IPC: 0.398152 cumulative IPC: 0.397699 (Simulation time: 0 hr 11 min 26 sec) 
Heartbeat CPU 0 instructions: 190000001 cycles: 377251500 heartbeat IPC: 0.399861 cumulative IPC: 0.397853 (Simulation time: 0 hr 12 min 5 sec) 
Heartbeat CPU 0 instructions: 200000002 cycles: 402379213 heartbeat IPC: 0.397967 cumulative IPC: 0.39786 (Simulation time: 0 hr 12 min 44 sec) 
Heartbeat CPU 0 instructions: 210000003 cycles: 427932046 heartbeat IPC: 0.391346 cumulative IPC: 0.397447 (Simulation time: 0 hr 13 min 23 sec) 
Heartbeat CPU 0 instructions: 220000000 cycles: 453372199 heartbeat IPC: 0.393079 cumulative IPC: 0.397187 (Simulation time: 0 hr 14 min 3 sec) 
Heartbeat CPU 0 instructions: 230000000 cycles: 478877664 heartbeat IPC: 0.392073 cumulative IPC: 0.3969 (Simulation time: 0 hr 14 min 42 sec) 
Heartbeat CPU 0 instructions: 240000000 cycles: 504014502 heartbeat IPC: 0.397822 cumulative IPC: 0.396948 (Simulation time: 0 hr 15 min 21 sec) 
Heartbeat CPU 0 instructions: 250000000 cycles: 562487385 heartbeat IPC: 0.171019 cumulative IPC: 0.372353 (Simulation time: 0 hr 16 min 52 sec) 
Finished CPU 0 instructions: 200000000 cycles: 537124793 cumulative IPC: 0.372353 (Simulation time: 0 hr 16 min 52 sec) 
 Instruction ID: 250000385

ChampSim completed all CPUs

Region of Interest Statistics

CPU 0 cumulative IPC: 0.372353 instructions: 200000000 cycles: 537124793
ITLB SPEC fills:          0  NON-SPEC fills:          0
ITLB Test counter :          0
ITLB Leapfrog:          0
ITLB MSHR merge:          0
ITLB TOTAL     ACCESS:   35714209  HIT:   35714047  MISS:        162  HIT %:    99.9995  MISS %: 0.000453601   MPKI: 0.00081
ITLB LOAD TRANSLATION NON_SPEC    ACCESS:   35714209  HIT:   35714047  MISS:        162  HIT %:    99.9995  MISS %: 0.000453601   MPKI: 0.00081
ITLB PREFETCH  REQUESTED:          0  ISSUED:          0  USEFUL:          0  USELESS:          0
ITLB USEFUL LOAD PREFETCHES:          0 PREFETCH ISSUED TO LOWER LEVEL:          0  ACCURACY: -nan
ITLB TIMELY PREFETCHES:          0 LATE PREFETCHES: 0 DROPPED PREFETCHES: 0
ITLB COMMIT LATE PREFETCHES: 0 MISSED OPPORTUNITY: 0 LATE IN PQ: 0 UNCOVERED: 0
ITLB COMMIT LATE MSHR PREFETCHES: 0
ITLB MPKI TOTAL: 0 MSHR LATE: 0 PQ LATE: 0 COMMIT LATE: 0 MISSED OPPORTUNITY: 0 UNCOVERED: 0
ITLB PREFETCHES SAME FILL-ORIGIN LEVEL: 0 DIFFERENT FILL-ORIGIN LEVEL: 0
ITLB AVERAGE MISS LATENCY: 184.883 cycles
ITLB AVERAGE MISS LATENCY LOAD: -nan cycles
ITLB AVERAGE MISS LATENCY PREFETCH: -nan cycles
ITLB AVERAGE MSHR OCCUPANCY: 1.792e-06
ITLB MSHR FULL: 0
ITLB RQ	ACCESS:   40337909	FORWARD:          0	MERGED:    4623663	TO_CACHE:   35714246

DTLB SPEC fills:          0  NON-SPEC fills:          0
DTLB Test counter :          0
DTLB Leapfrog:          0
DTLB MSHR merge:          0
DTLB TOTAL     ACCESS:   64744469  HIT:   64640612  MISS:     103857  HIT %:    99.8396  MISS %:   0.160411   MPKI: 0.519285
DTLB LOAD TRANSLATION NON_SPEC    ACCESS:   64744469  HIT:   64640612  MISS:     103857  HIT %:    99.8396  MISS %:   0.160411   MPKI: 0.519285
DTLB PREFETCH  REQUESTED:          0  ISSUED:          0  USEFUL:          0  USELESS:          0
DTLB USEFUL LOAD PREFETCHES:          0 PREFETCH ISSUED TO LOWER LEVEL:          0  ACCURACY: -nan
DTLB TIMELY PREFETCHES:          0 LATE PREFETCHES: 0 DROPPED PREFETCHES: 0
DTLB COMMIT LATE PREFETCHES: 0 MISSED OPPORTUNITY: 0 LATE IN PQ: 0 UNCOVERED: 0
DTLB COMMIT LATE MSHR PREFETCHES: 0
DTLB MPKI TOTAL: 0 MSHR LATE: 0 PQ LATE: 0 COMMIT LATE: 0 MISSED OPPORTUNITY: 0 UNCOVERED: 0
DTLB PREFETCHES SAME FILL-ORIGIN LEVEL: 0 DIFFERENT FILL-ORIGIN LEVEL: 0
DTLB AVERAGE MISS LATENCY: 17.6396 cycles
DTLB AVERAGE MISS LATENCY LOAD: -nan cycles
DTLB AVERAGE MISS LATENCY PREFETCH: -nan cycles
DTLB AVERAGE MSHR OCCUPANCY: 0.00187482
DTLB MSHR FULL: 0
DTLB RQ	ACCESS:   72959970	FORWARD:          0	MERGED:    8196401	TO_CACHE:   64763569

STLB SPEC fills:          0  NON-SPEC fills:          0
STLB Test counter :          0
STLB Leapfrog:          0
STLB MSHR merge:          0
STLB TOTAL     ACCESS:     104019  HIT:      98131  MISS:       5888  HIT %:    94.3395  MISS %:     5.6605   MPKI: 0.02944
STLB LOAD TRANSLATION NON_SPEC    ACCESS:     104019  HIT:      98131  MISS:       5888  HIT %:    94.3395  MISS %:     5.6605   MPKI: 0.02944
STLB PREFETCH  REQUESTED:          0  ISSUED:          0  USEFUL:          0  USELESS:          0
STLB USEFUL LOAD PREFETCHES:          0 PREFETCH ISSUED TO LOWER LEVEL:          0  ACCURACY: -nan
STLB TIMELY PREFETCHES:          0 LATE PREFETCHES: 0 DROPPED PREFETCHES: 0
STLB COMMIT LATE PREFETCHES: 0 MISSED OPPORTUNITY: 0 LATE IN PQ: 0 UNCOVERED: 0
STLB COMMIT LATE MSHR PREFETCHES: 0
STLB MPKI TOTAL: 0 MSHR LATE: 0 PQ LATE: 0 COMMIT LATE: 0 MISSED OPPORTUNITY: 0 UNCOVERED: 0
STLB PREFETCHES SAME FILL-ORIGIN LEVEL: 0 DIFFERENT FILL-ORIGIN LEVEL: 0
STLB AVERAGE MISS LATENCY: 157.146 cycles
STLB AVERAGE MISS LATENCY LOAD: -nan cycles
STLB AVERAGE MISS LATENCY PREFETCH: -nan cycles
STLB AVERAGE MSHR OCCUPANCY: 0.00186504
STLB MSHR FULL: 0
STLB RQ	ACCESS:     104019	FORWARD:          0	MERGED:          0	TO_CACHE:     104019

STLB Hit, L1D data hit: 0
STLB Hit, L2C data hit: 0
STLB Hit, LLC data hit: 0
STLB Hit, LLC data miss: 0
STLB STLB hints to L2: 0
L0D SPEC fills:   23307601  NON-SPEC fills:          0
L0D TimeGuard Request with older TS:     205709 Restricted eviction:     142172 read:     230548
L0D Test counter :          0
L0D Leapfrog:          0
L0D MSHR merge:     651662
L0D TOTAL     ACCESS:   46628648  HIT:    3314290  MISS:   43314358  HIT %:    7.10784  MISS %:    92.8922   MPKI: 216.572
L0D LOAD      TOTAL       ACCESS:   46628648  HIT:    3314290  MISS:   43314358  HIT %:    7.10784  MISS %:    92.8922   MPKI: 216.572
L0D LOAD      NON_SPEC    ACCESS:   20063134  HIT:     198549  MISS:   19864585  HIT %:   0.989621  MISS %:    99.0104   MPKI: 99.3229
L0D LOAD      SPEC        ACCESS:   26565514  HIT:    3115741  MISS:   23449773  HIT %:    11.7285  MISS %:    88.2715   MPKI: 117.249
L0D PREFETCH  REQUESTED:          0  ISSUED:          0  USEFUL:          0  USELESS:          0
L0D USEFUL LOAD PREFETCHES:          0 PREFETCH ISSUED TO LOWER LEVEL:          0  ACCURACY: -nan
L0D TIMELY PREFETCHES:          0 LATE PREFETCHES: 0 DROPPED PREFETCHES: 0
L0D COMMIT LATE PREFETCHES: 0 MISSED OPPORTUNITY: 0 LATE IN PQ: 0 UNCOVERED: 0
L0D COMMIT LATE MSHR PREFETCHES: 0
L0D MPKI TOTAL: 219.83 MSHR LATE: 0 PQ LATE: 0 COMMIT LATE: 0 MISSED OPPORTUNITY: 0 UNCOVERED: 0
L0D PREFETCHES SAME FILL-ORIGIN LEVEL: 0 DIFFERENT FILL-ORIGIN LEVEL: 0
L0D AVERAGE MISS LATENCY: 5.71542 cycles
L0D AVERAGE MISS LATENCY LOAD: 5.71542 cycles
L0D AVERAGE MISS LATENCY PREFETCH: -nan cycles
L0D AVERAGE MSHR OCCUPANCY: 0.721797
L0D MSHR FULL: 0.0223141
L0D RQ	ACCESS:   53936210	FORWARD:          0	MERGED:    6655903	TO_CACHE:   47280307
L0D WQ	ACCESS:   25679663	FORWARD:          0	MERGED:          0	TO_CACHE:   25679663

L1D SPEC fills:          0  NON-SPEC fills:     561671
L1D Test counter :          0
L1D Leapfrog:          0
L1D MSHR merge:       1633
L1D TOTAL     ACCESS:   66857542  HIT:   65297323  MISS:    1560219  HIT %:    97.6664  MISS %:    2.33365   MPKI: 7.8011
L1D LOAD      TOTAL       ACCESS:   43312724  HIT:   42473031  MISS:     839693  HIT %:    98.0613  MISS %:    1.93868   MPKI: 4.19846
L1D LOAD      NON_SPEC    ACCESS:   19863579  HIT:   19301908  MISS:     561671  HIT %:    97.1724  MISS %:    2.82764   MPKI: 2.80836
L1D LOAD      SPEC        ACCESS:   23449145  HIT:   23171123  MISS:     278022  HIT %:    98.8144  MISS %:    1.18564   MPKI: 1.39011
L1D RFO       NON_SPEC    ACCESS:   22989153  HIT:   22568003  MISS:     421150  HIT %:     98.168  MISS %:    1.83195   MPKI: 2.10575
L1D COMMIT LOAD NON_SPEC    ACCESS:     275961  HIT:     251978  MISS:      23983  HIT %:    91.3093  MISS %:    8.69072   MPKI: 0.119915
L1D COMMIT WRITE NON_SPEC    ACCESS:     279704  HIT:       4311  MISS:     275393  HIT %:    1.54127  MISS %:    98.4587   MPKI: 1.37696
L1D PREFETCH  REQUESTED:          0  ISSUED:          0  USEFUL:          0  USELESS:          0
L1D USEFUL LOAD PREFETCHES:          0 PREFETCH ISSUED TO LOWER LEVEL:          0  ACCURACY: -nan
L1D TIMELY PREFETCHES:          0 LATE PREFETCHES: 0 DROPPED PREFETCHES: 0
L1D COMMIT LATE PREFETCHES: 0 MISSED OPPORTUNITY: 0 LATE IN PQ: 0 UNCOVERED: 0
L1D COMMIT LATE MSHR PREFETCHES: 0
L1D MPKI TOTAL: 4.20663 MSHR LATE: 0 PQ LATE: 0 COMMIT LATE: 0 MISSED OPPORTUNITY: 0 UNCOVERED: 0
L1D PREFETCHES SAME FILL-ORIGIN LEVEL: 0 DIFFERENT FILL-ORIGIN LEVEL: 0
L1D AVERAGE MISS LATENCY: 79.9546 cycles
L1D AVERAGE MISS LATENCY LOAD: 30.6161 cycles
L1D AVERAGE MISS LATENCY PREFETCH: -nan cycles
L1D AVERAGE MSHR OCCUPANCY: 0.283347
L1D MSHR FULL: 0.00825839
L1D RQ	ACCESS:   43914927	FORWARD:          0	MERGED:     319457	TO_CACHE:   43590517
L1D WQ	ACCESS:   25958695	FORWARD:       4953	MERGED:     338198	TO_CACHE:   25620497

L1D UNIQUE REGIONS ACCESSED: 0
L1D REGIONS CONFLICTS: 0
L1D Cross Page Prefetch Requests: 0
L1D Same Page Prefetch Requests: 0
L1D ROI Sum of L1D PQ occupancy: 0
L1D PREFETCHES PUSHED FROM L2C: 0
L1I SPEC fills:          0  NON-SPEC fills:          0
L1I Test counter :          0
L1I Leapfrog:          0
L1I MSHR merge:       5507
L1I TOTAL     ACCESS:   40332402  HIT:   40316975  MISS:      15427  HIT %:    99.9618  MISS %:  0.0382496   MPKI: 0.077135
L1I LOAD      TOTAL       ACCESS:   40332402  HIT:   40316975  MISS:      15427  HIT %:    99.9618  MISS %:  0.0382496   MPKI: 0.077135
L1I LOAD      NON_SPEC    ACCESS:   40332402  HIT:   40316975  MISS:      15427  HIT %:    99.9618  MISS %:  0.0382496   MPKI: 0.077135
L1I PREFETCH  REQUESTED:          0  ISSUED:          0  USEFUL:          0  USELESS:          0
L1I USEFUL LOAD PREFETCHES:          0 PREFETCH ISSUED TO LOWER LEVEL:          0  ACCURACY: -nan
L1I TIMELY PREFETCHES:          0 LATE PREFETCHES: 0 DROPPED PREFETCHES: 0
L1I COMMIT LATE PREFETCHES: 0 MISSED OPPORTUNITY: 0 LATE IN PQ: 0 UNCOVERED: 0
L1I COMMIT LATE MSHR PREFETCHES: 0
L1I MPKI TOTAL: 0.10467 MSHR LATE: 0 PQ LATE: 0 COMMIT LATE: 0 MISSED OPPORTUNITY: 0 UNCOVERED: 0
L1I PREFETCHES SAME FILL-ORIGIN LEVEL: 0 DIFFERENT FILL-ORIGIN LEVEL: 0
L1I AVERAGE MISS LATENCY: 48.5783 cycles
L1I AVERAGE MISS LATENCY LOAD: 48.5783 cycles
L1I AVERAGE MISS LATENCY PREFETCH: -nan cycles
L1I AVERAGE MSHR OCCUPANCY: 0.000580397
L1I MSHR FULL: 0
L1I RQ	ACCESS:   57042520	FORWARD:          0	MERGED:   16704611	TO_CACHE:   40337909

BTB SPEC fills:          0  NON-SPEC fills:          0
BTB Test counter :          0
BTB Leapfrog:          0
BTB MSHR merge:          0
BTB TOTAL     ACCESS:   31329121  HIT:   29031204  MISS:    2297917  HIT %:    92.6652  MISS %:    7.33476   MPKI: 11.4896
BTB BRANCH_DIRECT_JUMP	ACCESS:    1094608  HIT:    1094408  MISS:        200
BTB BRANCH_INDIRECT	ACCESS:       6209  HIT:       4182  MISS:       2027
BTB BRANCH_CONDITIONAL	ACCESS:   18688882  HIT:   18687006  MISS:       1876
BTB BRANCH_DIRECT_CALL	ACCESS:    5769438  HIT:    5768610  MISS:        828
BTB BRANCH_INDIRECT_CALL	ACCESS:        272  HIT:        218  MISS:         54
BTB BRANCH_RETURN	ACCESS:    5769712  HIT:    3476780  MISS:    2292932
BTB BRANCH_OTHER ACCESS:          0  HIT:          0  MISS:          0

L2C SPEC fills:          0  NON-SPEC fills:      21533
L2C Test counter :          0
L2C Leapfrog:          0
L2C MSHR merge:      15222
L2C TOTAL     ACCESS:    5407130  HIT:    4497919  MISS:     909211  HIT %:     83.185  MISS %:     16.815   MPKI: 4.54605
L2C LOAD      TOTAL       ACCESS:     855117  HIT:     778839  MISS:      76278  HIT %:    91.0798  MISS %:    8.92018   MPKI: 0.38139
L2C LOAD      NON_SPEC    ACCESS:     577097  HIT:     552617  MISS:      24480  HIT %:    95.7581  MISS %:    4.24192   MPKI: 0.1224
L2C LOAD      SPEC        ACCESS:     278020  HIT:     226222  MISS:      51798  HIT %:     81.369  MISS %:     18.631   MPKI: 0.25899
L2C RFO       NON_SPEC    ACCESS:     421133  HIT:      67871  MISS:     353262  HIT %:    16.1163  MISS %:    83.8837   MPKI: 1.76631
L2C PREFETCH  NON_SPEC    ACCESS:    3548095  HIT:    3103772  MISS:     444323  HIT %:    87.4771  MISS %:    12.5229   MPKI: 2.22161
L2C WRITEBACK NON_SPEC    ACCESS:     435901  HIT:     435872  MISS:         29  HIT %:    99.9933  MISS %: 0.00665289   MPKI: 0.000145
L2C CLEAN_EVICTION NON_SPEC    ACCESS:      93463  HIT:      70078  MISS:      23385  HIT %:    74.9794  MISS %:    25.0206   MPKI: 0.116925
L2C COMMIT LOAD NON_SPEC    ACCESS:      23983  HIT:      13837  MISS:      10146  HIT %:     57.695  MISS %:     42.305   MPKI: 0.05073
L2C LOAD TRANSLATION NON_SPEC    ACCESS:      29438  HIT:      27650  MISS:       1788  HIT %:    93.9262  MISS %:    6.07378   MPKI: 0.00894
L2C PREFETCH  REQUESTED:    3648620  ISSUED:    3648115  USEFUL:     332560  USELESS:     116318
L2C USEFUL LOAD PREFETCHES:     332560 PREFETCH ISSUED TO LOWER LEVEL:     482383  ACCURACY: 68.9411
L2C TIMELY PREFETCHES:     332560 LATE PREFETCHES: 22600 DROPPED PREFETCHES: 0
L2C COMMIT LATE PREFETCHES: 0 MISSED OPPORTUNITY: 0 LATE IN PQ: 0 UNCOVERED: 0
L2C COMMIT LATE MSHR PREFETCHES: 0
L2C MPKI TOTAL: 0.38139 MSHR LATE: 0.113 PQ LATE: 0 COMMIT LATE: 0 MISSED OPPORTUNITY: 0 UNCOVERED: 0
L2C PREFETCHES SAME FILL-ORIGIN LEVEL: 466925 DIFFERENT FILL-ORIGIN LEVEL: 15458
L2C AVERAGE MISS LATENCY: 220.577 cycles
L2C AVERAGE MISS LATENCY LOAD: 187.833 cycles
L2C AVERAGE MISS LATENCY PREFETCH: 210.323 cycles
L2C AVERAGE MSHR OCCUPANCY: 3.23488
L2C MSHR FULL: 0.00953975
L2C RQ	ACCESS:    1329693	FORWARD:          0	MERGED:          0	TO_CACHE:    1329673
L2C WQ	ACCESS:     529364	FORWARD:         31	MERGED:          0	TO_CACHE:     529364
L2C PQ	ACCESS:    3648115	FORWARD:          0	MERGED:      39107	TO_CACHE:    3608997

L2C Instructions Evicting Data 2898
L2C Translations Evicting Data 1781
L2C Data Evicting Data 824595
L2C Instructions Evicting Instructions 44
L2C Translations Evicting Instructions 7
L2C Data Evicting Instructions 2910
L2C Instructions Evicting Translations 5
L2C Translations Evicting Translations 0
L2C Data Evicting Translations 1759
L2C Dense regions hint from L2: 0
PSCL5 SPEC fills:          0  NON-SPEC fills:          0
PSCL5 Test counter :          0
PSCL5 Leapfrog:          0
PSCL5 MSHR merge:          0
PSCL5 TOTAL     ACCESS:          0  HIT:          0  MISS:          0  HIT %:       -nan  MISS %:       -nan   MPKI: 0
PSCL5 PREFETCH  REQUESTED:          0  ISSUED:          0  USEFUL:          0  USELESS:          0
PSCL5 USEFUL LOAD PREFETCHES:          0 PREFETCH ISSUED TO LOWER LEVEL:          0  ACCURACY: -nan
PSCL5 TIMELY PREFETCHES:          0 LATE PREFETCHES: 0 DROPPED PREFETCHES: 0
PSCL5 COMMIT LATE PREFETCHES: 0 MISSED OPPORTUNITY: 0 LATE IN PQ: 0 UNCOVERED: 0
PSCL5 COMMIT LATE MSHR PREFETCHES: 0
PSCL5 MPKI TOTAL: 0 MSHR LATE: 0 PQ LATE: 0 COMMIT LATE: 0 MISSED OPPORTUNITY: 0 UNCOVERED: 0
PSCL5 PREFETCHES SAME FILL-ORIGIN LEVEL: 0 DIFFERENT FILL-ORIGIN LEVEL: 0

PSCL4 SPEC fills:          0  NON-SPEC fills:          0
PSCL4 Test counter :          0
PSCL4 Leapfrog:          0
PSCL4 MSHR merge:          0
PSCL4 TOTAL     ACCESS:          0  HIT:          0  MISS:          0  HIT %:       -nan  MISS %:       -nan   MPKI: 0
PSCL4 PREFETCH  REQUESTED:          0  ISSUED:          0  USEFUL:          0  USELESS:          0
PSCL4 USEFUL LOAD PREFETCHES:          0 PREFETCH ISSUED TO LOWER LEVEL:          0  ACCURACY: -nan
PSCL4 TIMELY PREFETCHES:          0 LATE PREFETCHES: 0 DROPPED PREFETCHES: 0
PSCL4 COMMIT LATE PREFETCHES: 0 MISSED OPPORTUNITY: 0 LATE IN PQ: 0 UNCOVERED: 0
PSCL4 COMMIT LATE MSHR PREFETCHES: 0
PSCL4 MPKI TOTAL: 0 MSHR LATE: 0 PQ LATE: 0 COMMIT LATE: 0 MISSED OPPORTUNITY: 0 UNCOVERED: 0
PSCL4 PREFETCHES SAME FILL-ORIGIN LEVEL: 0 DIFFERENT FILL-ORIGIN LEVEL: 0

PSCL3 SPEC fills:          0  NON-SPEC fills:          0
PSCL3 Test counter :          0
PSCL3 Leapfrog:          0
PSCL3 MSHR merge:          0
PSCL3 TOTAL     ACCESS:          0  HIT:          0  MISS:          0  HIT %:       -nan  MISS %:       -nan   MPKI: 0
PSCL3 PREFETCH  REQUESTED:          0  ISSUED:          0  USEFUL:          0  USELESS:          0
PSCL3 USEFUL LOAD PREFETCHES:          0 PREFETCH ISSUED TO LOWER LEVEL:          0  ACCURACY: -nan
PSCL3 TIMELY PREFETCHES:          0 LATE PREFETCHES: 0 DROPPED PREFETCHES: 0
PSCL3 COMMIT LATE PREFETCHES: 0 MISSED OPPORTUNITY: 0 LATE IN PQ: 0 UNCOVERED: 0
PSCL3 COMMIT LATE MSHR PREFETCHES: 0
PSCL3 MPKI TOTAL: 0 MSHR LATE: 0 PQ LATE: 0 COMMIT LATE: 0 MISSED OPPORTUNITY: 0 UNCOVERED: 0
PSCL3 PREFETCHES SAME FILL-ORIGIN LEVEL: 0 DIFFERENT FILL-ORIGIN LEVEL: 0

PSCL2 SPEC fills:          0  NON-SPEC fills:          0
PSCL2 Test counter :          0
PSCL2 Leapfrog:          0
PSCL2 MSHR merge:          0
PSCL2 TOTAL     ACCESS:          0  HIT:          0  MISS:          0  HIT %:       -nan  MISS %:       -nan   MPKI: 0
PSCL2 PREFETCH  REQUESTED:          0  ISSUED:          0  USEFUL:          0  USELESS:          0
PSCL2 USEFUL LOAD PREFETCHES:          0 PREFETCH ISSUED TO LOWER LEVEL:          0  ACCURACY: -nan
PSCL2 TIMELY PREFETCHES:          0 LATE PREFETCHES: 0 DROPPED PREFETCHES: 0
PSCL2 COMMIT LATE PREFETCHES: 0 MISSED OPPORTUNITY: 0 LATE IN PQ: 0 UNCOVERED: 0
PSCL2 COMMIT LATE MSHR PREFETCHES: 0
PSCL2 MPKI TOTAL: 0 MSHR LATE: 0 PQ LATE: 0 COMMIT LATE: 0 MISSED OPPORTUNITY: 0 UNCOVERED: 0
PSCL2 PREFETCHES SAME FILL-ORIGIN LEVEL: 0 DIFFERENT FILL-ORIGIN LEVEL: 0

LLC SPEC fills:          0  NON-SPEC fills:       8061
LLC Test counter :          0
LLC Leapfrog:          0
LLC MSHR merge:         21
LLC TOTAL     ACCESS:    1319166  HIT:     509777  MISS:     809389  HIT %:    38.6439  MISS %:    61.3561   MPKI: 4.04695
LLC LOAD      TOTAL       ACCESS:      61056  HIT:      12749  MISS:      48307  HIT %:    20.8808  MISS %:    79.1192   MPKI: 0.241535
LLC LOAD      NON_SPEC    ACCESS:      18365  HIT:       7768  MISS:      10597  HIT %:    42.2978  MISS %:    57.7022   MPKI: 0.052985
LLC LOAD      SPEC        ACCESS:      42691  HIT:       4981  MISS:      37710  HIT %:    11.6676  MISS %:    88.3324   MPKI: 0.18855
LLC RFO       NON_SPEC    ACCESS:     351725  HIT:       6963  MISS:     344762  HIT %:    1.97967  MISS %:    98.0203   MPKI: 1.72381
LLC PREFETCH  NON_SPEC    ACCESS:     480562  HIT:      83067  MISS:     397495  HIT %:    17.2854  MISS %:    82.7146   MPKI: 1.98748
LLC WRITEBACK NON_SPEC    ACCESS:     364943  HIT:     364721  MISS:        222  HIT %:    99.9392  MISS %:  0.0608314   MPKI: 0.00111
LLC CLEAN_EVICTION NON_SPEC    ACCESS:      54798  HIT:      40367  MISS:      14431  HIT %:    73.6651  MISS %:    26.3349   MPKI: 0.072155
LLC COMMIT LOAD NON_SPEC    ACCESS:       4294  HIT:       1549  MISS:       2745  HIT %:    36.0736  MISS %:    63.9264   MPKI: 0.013725
LLC LOAD TRANSLATION NON_SPEC    ACCESS:       1788  HIT:        361  MISS:       1427  HIT %:    20.1902  MISS %:    79.8098   MPKI: 0.007135
LLC PREFETCH  REQUESTED:          0  ISSUED:          0  USEFUL:      10090  USELESS:     384016
LLC USEFUL LOAD PREFETCHES:      10090 PREFETCH ISSUED TO LOWER LEVEL:     397771  ACCURACY: 2.53664
LLC TIMELY PREFETCHES:      10090 LATE PREFETCHES: 276 DROPPED PREFETCHES: 0
LLC COMMIT LATE PREFETCHES: 0 MISSED OPPORTUNITY: 0 LATE IN PQ: 0 UNCOVERED: 0
LLC COMMIT LATE MSHR PREFETCHES: 0
LLC MPKI TOTAL: 0.241535 MSHR LATE: 0.00138 PQ LATE: 0 COMMIT LATE: 0 MISSED OPPORTUNITY: 0 UNCOVERED: 0
LLC PREFETCHES SAME FILL-ORIGIN LEVEL: 5462 DIFFERENT FILL-ORIGIN LEVEL: 0
LLC AVERAGE MISS LATENCY: 218.985 cycles
LLC AVERAGE MISS LATENCY LOAD: 206.025 cycles
LLC AVERAGE MISS LATENCY PREFETCH: 218.749 cycles
LLC AVERAGE MSHR OCCUPANCY: 4.28601
LLC MSHR FULL: 0
LLC RQ	ACCESS:     418876	FORWARD:          0	MERGED:          0	TO_CACHE:     418865
LLC WQ	ACCESS:     419741	FORWARD:         11	MERGED:          0	TO_CACHE:     419741
LLC PQ	ACCESS:     482383	FORWARD:          0	MERGED:        453	TO_CACHE:     481930

LLC Dense regions hint to LLC: 0

RAW hits: 1494105
Loads Generated: 55430316
Loads sent to L1D: 53936210
Stores Generated: 25679661
Stores sent to L1D: 25679663
Major fault: 0 Minor fault: 2275
Allocated PAGES: 2275
Total Load insts: 65739068
Total Non-spec loads: 22209429
Percentage of speculative loads: 66.2158

LeapFrogging counter: 109603
Commit hits: 23174514 miss: 10669089
Commit hit %: 68.4753 miss %: 31.5247
Commits not translated: 0
Loads retired: 839693
Stores retired: 25679663
Cache fills: 839693
L1D response latency: 30.6161 cycles
Load retirement latency: 60.29 cycles
OOO test counter: 0
Discarded buffer inserts: 23174514 hits: 40670 hit %: 0.175495
Filter prediction accuracy: 99.9435
------------------
Depth Distribution
------------------
depth 0: 6091615
depth 1: 33209597
depth 2: 23900947
depth 3: 3549722
depth 4: 960506
depth 5: 772980
depth 6: 217672
depth 7: 140027
depth 8: 91681
depth 9: 28083
depth 10: 785
depth 11: 607
depth 12: 0
depth 13: 0
depth 14: 0
depth 15: 0
depth 16: 0
depth 17: 0
depth 18: 0
depth 19: 0
depth 20: 0
depth 21: 0
depth 22: 0
depth 23: 0
depth 24: 0
depth 25: 0
depth 26: 0
depth 27: 0
depth 28: 0
depth 29: 0
Total: 68964222
------------------
ST read accesses: 55416121
ST write accesses: 14208
PT read accesses: 757769971
PT write accesses: 38827712
FILTER read accesses: 178498340
FILTER write accesses: 6738153
GHR read accesses: 152958540
GHR write accesses: 23587054
PERC read accesses: 5029667919
PERC write accesses: 13726844
GHR counter read accesses: 110860658
GHR counter write accesses: 60312261
GHR ip read accesses: 177798525
GHR ip write accesses: 221721316
ST tag read accesses: 15067342814
ST tag write accesses: 143346308

DRAM Statistics
 CHANNEL 0
 RQ ROW_BUFFER_HIT:     185188  ROW_BUFFER_MISS:     609535
 DBUS_CONGESTED:        130
 WQ ROW_BUFFER_HIT:      79462  ROW_BUFFER_MISS:     319672  FULL:        102

 AVG_CONGESTED_CYCLE: 6
 All warmup complete: 2
Channel 0 Bank busy for read cycles: 0
Channel 0 Bank busy for write cycles: 0
Channel 0
Rank 0
0banks busy for read cycles: 489131781
0banks busy for write cycles: 1710
1banks busy for read cycles: 10356868
1banks busy for write cycles: 305438
2banks busy for read cycles: 11078561
2banks busy for write cycles: 183376
3banks busy for read cycles: 6602141
3banks busy for write cycles: 147523
4banks busy for read cycles: 3513025
4banks busy for write cycles: 128321
5banks busy for read cycles: 2331425
5banks busy for write cycles: 132738
6banks busy for read cycles: 1339601
6banks busy for write cycles: 150394
7banks busy for read cycles: 995415
7banks busy for write cycles: 601220
8banks busy for read cycles: 1437062
8banks busy for write cycles: 8688195

CPU 0 Branch Prediction Accuracy: 93.3169% MPKI: 11.1129 Average ROB Occupancy at Mispredict: 21.9022
Branch types
NOT_BRANCH: 166743420 83.3717%
BRANCH_DIRECT_JUMP: 1094608 0.547304%
BRANCH_INDIRECT: 6209 0.0031045%
BRANCH_CONDITIONAL: 20616346 10.3082%
BRANCH_DIRECT_CALL: 5769438 2.88472%
BRANCH_INDIRECT_CALL: 272 0.000136%
BRANCH_RETURN: 5769712 2.88486%
BRANCH_OTHER: 0 0%

DRAM PAGES: 1048576
Allocated PAGES: 2275
