Initialize SIGNATURE TABLE
ST_SET: 1
ST_WAY: 256
ST_TAG_BIT: 16
ST_TAG_MASK: ffff

Initialize PATTERN TABLE
PT_SET: 512
PT_WAY: 4
SIG_DELTA_BIT: 7
C_SIG_BIT: 4
C_DELTA_BIT: 4

Initialize PREFETCH FILTER
FILTER_SET: 1024

Initialize PERCEPTRON
PERC_ENTRIES: 4096
PERC_FEATURES: 9

*** ChampSim Multicore Out-of-Order Simulator ***

Warmup Instructions: 50000000
Simulation Instructions: 200000000
Number of CPUs: 1
LLC sets: 2048
LLC ways: 16
L0D sets: 16
L0D ways: 2
ROB size: 352
LQ size: 128
SQ size: 72
Secure Berti: OFF
Berti: OFF
Berti Fill: OFF
On commit prefetching: ON
Hit-based filter: ON
Time-guarding: ON
Free-slotting: ON
Leap-frogging: ON
Train prefetcher on L0D bypass: OFF
No translation penalty for prefetchers: OFF
Prefetch to L0D only: OFF
Prefetch to L1D only: OFF
Clean evictions: ON
Commit loads: ON
Commit write: ON
Fill commit loads to L2C, LLC: ON
DRAM IO FREQUENCY: 6400
ROB SIZE: 352
Off-chip DRAM Size: 4096 MB Channels: 1 Width: 64-bit Data Rate: 6400 MT/s
CPU 0 runs /home/sumon/secure_berti/GhostMinion/../../traces/spec/649.fotonik3d_s-8225B.champsimtrace.xz
.xz
BTB has LRU replacement policy
ITLB has LRU replacement policy
DTLB has LRU replacement policy
STLB has LRU replacement policy
L1I has LRU replacement policy
L0D has LRU replacement policy
L1D has LRU replacement policy
PERC_ENTRIES: 4096
L2C has LRU replacement policy
LLC has LRU replacement policy
Heartbeat CPU 0 instructions: 10000000 cycles: 3146074 heartbeat IPC: 3.17856 cumulative IPC: 3.17856 (Simulation time: 0 hr 0 min 32 sec) 
Heartbeat CPU 0 instructions: 20000001 cycles: 6292078 heartbeat IPC: 3.17864 cumulative IPC: 3.1786 (Simulation time: 0 hr 1 min 4 sec) 
Heartbeat CPU 0 instructions: 30000000 cycles: 9437977 heartbeat IPC: 3.17874 cumulative IPC: 3.17865 (Simulation time: 0 hr 1 min 36 sec) 
Heartbeat CPU 0 instructions: 40000002 cycles: 12583916 heartbeat IPC: 3.1787 cumulative IPC: 3.17866 (Simulation time: 0 hr 2 min 7 sec) 
Heartbeat CPU 0 instructions: 50000001 cycles: 15729768 heartbeat IPC: 3.17879 cumulative IPC: 3.17869 (Simulation time: 0 hr 2 min 38 sec) 

Warmup complete CPU 0 instructions: 50000001 cycles: 15729768 (Simulation time: 0 hr 2 min 38 sec) 

Heartbeat CPU 0 instructions: 60000000 cycles: 28147742 heartbeat IPC: 0.805284 cumulative IPC: 0.805284 (Simulation time: 0 hr 3 min 17 sec) 
Heartbeat CPU 0 instructions: 70000002 cycles: 40578195 heartbeat IPC: 0.804476 cumulative IPC: 0.80488 (Simulation time: 0 hr 3 min 57 sec) 
Heartbeat CPU 0 instructions: 80000002 cycles: 53001105 heartbeat IPC: 0.804964 cumulative IPC: 0.804908 (Simulation time: 0 hr 4 min 35 sec) 
Heartbeat CPU 0 instructions: 90000003 cycles: 65457195 heartbeat IPC: 0.80282 cumulative IPC: 0.804385 (Simulation time: 0 hr 5 min 15 sec) 
Heartbeat CPU 0 instructions: 100000000 cycles: 77906704 heartbeat IPC: 0.803244 cumulative IPC: 0.804157 (Simulation time: 0 hr 5 min 54 sec) 
Heartbeat CPU 0 instructions: 110000000 cycles: 90352678 heartbeat IPC: 0.803473 cumulative IPC: 0.804043 (Simulation time: 0 hr 6 min 33 sec) 
Heartbeat CPU 0 instructions: 120000002 cycles: 100680254 heartbeat IPC: 0.968282 cumulative IPC: 0.824009 (Simulation time: 0 hr 7 min 9 sec) 
Heartbeat CPU 0 instructions: 130000003 cycles: 110722269 heartbeat IPC: 0.995816 cumulative IPC: 0.842172 (Simulation time: 0 hr 7 min 44 sec) 
Heartbeat CPU 0 instructions: 140000000 cycles: 120763414 heartbeat IPC: 0.995902 cumulative IPC: 0.856868 (Simulation time: 0 hr 8 min 20 sec) 
Heartbeat CPU 0 instructions: 150000003 cycles: 130803855 heartbeat IPC: 0.995973 cumulative IPC: 0.869005 (Simulation time: 0 hr 8 min 55 sec) 
Heartbeat CPU 0 instructions: 160000003 cycles: 140841314 heartbeat IPC: 0.996268 cumulative IPC: 0.879215 (Simulation time: 0 hr 9 min 30 sec) 
Heartbeat CPU 0 instructions: 170000003 cycles: 150880935 heartbeat IPC: 0.996054 cumulative IPC: 0.887895 (Simulation time: 0 hr 10 min 6 sec) 
Heartbeat CPU 0 instructions: 180000000 cycles: 160916400 heartbeat IPC: 0.996466 cumulative IPC: 0.895399 (Simulation time: 0 hr 10 min 40 sec) 
Heartbeat CPU 0 instructions: 190000002 cycles: 170960585 heartbeat IPC: 0.995601 cumulative IPC: 0.901883 (Simulation time: 0 hr 11 min 15 sec) 
Heartbeat CPU 0 instructions: 200000002 cycles: 180996836 heartbeat IPC: 0.996388 cumulative IPC: 0.907622 (Simulation time: 0 hr 11 min 50 sec) 
Heartbeat CPU 0 instructions: 210000000 cycles: 191033255 heartbeat IPC: 0.996371 cumulative IPC: 0.912703 (Simulation time: 0 hr 12 min 24 sec) 
Heartbeat CPU 0 instructions: 220000000 cycles: 201073743 heartbeat IPC: 0.995968 cumulative IPC: 0.917213 (Simulation time: 0 hr 12 min 58 sec) 
Heartbeat CPU 0 instructions: 230000000 cycles: 211115239 heartbeat IPC: 0.995868 cumulative IPC: 0.921256 (Simulation time: 0 hr 13 min 32 sec) 
Heartbeat CPU 0 instructions: 240000003 cycles: 221162439 heartbeat IPC: 0.995302 cumulative IPC: 0.924877 (Simulation time: 0 hr 14 min 7 sec) 
Heartbeat CPU 0 instructions: 250000003 cycles: 231208514 heartbeat IPC: 0.995414 cumulative IPC: 0.928166 (Simulation time: 0 hr 14 min 41 sec) 
Finished CPU 0 instructions: 200000002 cycles: 215478746 cumulative IPC: 0.928166 (Simulation time: 0 hr 14 min 41 sec) 
 Instruction ID: 250000051

ChampSim completed all CPUs

Region of Interest Statistics

CPU 0 cumulative IPC: 0.928166 instructions: 200000002 cycles: 215478746
ITLB SPEC fills:          0  NON-SPEC fills:          0
ITLB Test counter :          0
ITLB Leapfrog:          0
ITLB MSHR merge:          0
ITLB TOTAL     ACCESS:   28074260  HIT:   28074260  MISS:          0  HIT %:        100  MISS %:          0   MPKI: 0
ITLB LOAD TRANSLATION NON_SPEC    ACCESS:   28074260  HIT:   28074260  MISS:          0  HIT %:        100  MISS %:          0   MPKI: 0
ITLB PREFETCH  REQUESTED:          0  ISSUED:          0  USEFUL:          0  USELESS:          0
ITLB USEFUL LOAD PREFETCHES:          0 PREFETCH ISSUED TO LOWER LEVEL:          0  ACCURACY: -nan
ITLB TIMELY PREFETCHES:          0 LATE PREFETCHES: 0 DROPPED PREFETCHES: 0
ITLB COMMIT LATE PREFETCHES: 0 MISSED OPPORTUNITY: 0 LATE IN PQ: 0 UNCOVERED: 0
ITLB COMMIT LATE MSHR PREFETCHES: 0
ITLB MPKI TOTAL: 0 MSHR LATE: 0 PQ LATE: 0 COMMIT LATE: 0 MISSED OPPORTUNITY: 0 UNCOVERED: 0
ITLB PREFETCHES SAME FILL-ORIGIN LEVEL: 0 DIFFERENT FILL-ORIGIN LEVEL: 0
ITLB AVERAGE MISS LATENCY: -nan cycles
ITLB AVERAGE MISS LATENCY LOAD: -nan cycles
ITLB AVERAGE MISS LATENCY PREFETCH: -nan cycles
ITLB AVERAGE MSHR OCCUPANCY: 0
ITLB MSHR FULL: 0
ITLB RQ	ACCESS:   35098225	FORWARD:          0	MERGED:    7023965	TO_CACHE:   28074260

DTLB SPEC fills:          0  NON-SPEC fills:          0
DTLB Test counter :          0
DTLB Leapfrog:          0
DTLB MSHR merge:          0
DTLB TOTAL     ACCESS:   35463079  HIT:   35416215  MISS:      46864  HIT %:    99.8679  MISS %:   0.132149   MPKI: 0.23432
DTLB LOAD TRANSLATION NON_SPEC    ACCESS:   35463079  HIT:   35416215  MISS:      46864  HIT %:    99.8679  MISS %:   0.132149   MPKI: 0.23432
DTLB PREFETCH  REQUESTED:          0  ISSUED:          0  USEFUL:          0  USELESS:          0
DTLB USEFUL LOAD PREFETCHES:          0 PREFETCH ISSUED TO LOWER LEVEL:          0  ACCURACY: -nan
DTLB TIMELY PREFETCHES:          0 LATE PREFETCHES: 0 DROPPED PREFETCHES: 0
DTLB COMMIT LATE PREFETCHES: 0 MISSED OPPORTUNITY: 0 LATE IN PQ: 0 UNCOVERED: 0
DTLB COMMIT LATE MSHR PREFETCHES: 0
DTLB MPKI TOTAL: 0 MSHR LATE: 0 PQ LATE: 0 COMMIT LATE: 0 MISSED OPPORTUNITY: 0 UNCOVERED: 0
DTLB PREFETCHES SAME FILL-ORIGIN LEVEL: 0 DIFFERENT FILL-ORIGIN LEVEL: 0
DTLB AVERAGE MISS LATENCY: 115.099 cycles
DTLB AVERAGE MISS LATENCY LOAD: -nan cycles
DTLB AVERAGE MISS LATENCY PREFETCH: -nan cycles
DTLB AVERAGE MSHR OCCUPANCY: 0.00702691
DTLB MSHR FULL: 0
DTLB RQ	ACCESS:   55804613	FORWARD:          0	MERGED:   20337256	TO_CACHE:   35467357

STLB SPEC fills:          0  NON-SPEC fills:          0
STLB Test counter :          0
STLB Leapfrog:          0
STLB MSHR merge:          0
STLB TOTAL     ACCESS:      46864  HIT:      19411  MISS:      27453  HIT %:    41.4199  MISS %:    58.5801   MPKI: 0.137265
STLB LOAD TRANSLATION NON_SPEC    ACCESS:      46864  HIT:      19411  MISS:      27453  HIT %:    41.4199  MISS %:    58.5801   MPKI: 0.137265
STLB PREFETCH  REQUESTED:          0  ISSUED:          0  USEFUL:          0  USELESS:          0
STLB USEFUL LOAD PREFETCHES:          0 PREFETCH ISSUED TO LOWER LEVEL:          0  ACCURACY: -nan
STLB TIMELY PREFETCHES:          0 LATE PREFETCHES: 0 DROPPED PREFETCHES: 0
STLB COMMIT LATE PREFETCHES: 0 MISSED OPPORTUNITY: 0 LATE IN PQ: 0 UNCOVERED: 0
STLB COMMIT LATE MSHR PREFETCHES: 0
STLB MPKI TOTAL: 0 MSHR LATE: 0 PQ LATE: 0 COMMIT LATE: 0 MISSED OPPORTUNITY: 0 UNCOVERED: 0
STLB PREFETCHES SAME FILL-ORIGIN LEVEL: 0 DIFFERENT FILL-ORIGIN LEVEL: 0
STLB AVERAGE MISS LATENCY: 181.064 cycles
STLB AVERAGE MISS LATENCY LOAD: -nan cycles
STLB AVERAGE MISS LATENCY PREFETCH: -nan cycles
STLB AVERAGE MSHR OCCUPANCY: 0.00390492
STLB MSHR FULL: 0
STLB RQ	ACCESS:      46864	FORWARD:          0	MERGED:          0	TO_CACHE:      46864

STLB Hit, L1D data hit: 0
STLB Hit, L2C data hit: 0
STLB Hit, LLC data hit: 0
STLB Hit, LLC data miss: 0
STLB STLB hints to L2: 0
L0D SPEC fills:   23962938  NON-SPEC fills:          0
L0D TimeGuard Request with older TS:      23898 Restricted eviction:        646 read:     297578
L0D Test counter :          0
L0D Leapfrog:          0
L0D MSHR merge:    4968852
L0D TOTAL     ACCESS:   36794667  HIT:    9723653  MISS:   27071014  HIT %:    26.4268  MISS %:    73.5732   MPKI: 135.355
L0D LOAD      TOTAL       ACCESS:   36794667  HIT:    9723653  MISS:   27071014  HIT %:    26.4268  MISS %:    73.5732   MPKI: 135.355
L0D LOAD      NON_SPEC    ACCESS:    3109671  HIT:       2241  MISS:    3107430  HIT %:  0.0720655  MISS %:    99.9279   MPKI: 15.5371
L0D LOAD      SPEC        ACCESS:   33684996  HIT:    9721412  MISS:   23963584  HIT %:    28.8598  MISS %:    71.1402   MPKI: 119.818
L0D PREFETCH  REQUESTED:          0  ISSUED:          0  USEFUL:          0  USELESS:          0
L0D USEFUL LOAD PREFETCHES:          0 PREFETCH ISSUED TO LOWER LEVEL:          0  ACCURACY: -nan
L0D TIMELY PREFETCHES:          0 LATE PREFETCHES: 0 DROPPED PREFETCHES: 0
L0D COMMIT LATE PREFETCHES: 0 MISSED OPPORTUNITY: 0 LATE IN PQ: 0 UNCOVERED: 0
L0D COMMIT LATE MSHR PREFETCHES: 0
L0D MPKI TOTAL: 160.199 MSHR LATE: 0 PQ LATE: 0 COMMIT LATE: 0 MISSED OPPORTUNITY: 0 UNCOVERED: 0
L0D PREFETCHES SAME FILL-ORIGIN LEVEL: 0 DIFFERENT FILL-ORIGIN LEVEL: 0
L0D AVERAGE MISS LATENCY: 8.81148 cycles
L0D AVERAGE MISS LATENCY LOAD: 8.81148 cycles
L0D AVERAGE MISS LATENCY PREFETCH: -nan cycles
L0D AVERAGE MSHR OCCUPANCY: 1.19107
L0D MSHR FULL: 2.39443e-07
L0D RQ	ACCESS:   70166092	FORWARD:          0	MERGED:   28402575	TO_CACHE:   41763517
L0D WQ	ACCESS:   14041096	FORWARD:          0	MERGED:          0	TO_CACHE:   14041096

L1D SPEC fills:          0  NON-SPEC fills:     971000
L1D Test counter :          0
L1D Leapfrog:          0
L1D MSHR merge:        924
L1D TOTAL     ACCESS:   47348590  HIT:   42748705  MISS:    4599885  HIT %:    90.2851  MISS %:    9.71494   MPKI: 22.9994
L1D LOAD      TOTAL       ACCESS:   27070088  HIT:   24156754  MISS:    2913334  HIT %:    89.2378  MISS %:    10.7622   MPKI: 14.5667
L1D LOAD      NON_SPEC    ACCESS:    3107420  HIT:    2136420  MISS:     971000  HIT %:    68.7522  MISS %:    31.2478   MPKI: 4.855
L1D LOAD      SPEC        ACCESS:   23962668  HIT:   22020334  MISS:    1942334  HIT %:    91.8943  MISS %:    8.10567   MPKI: 9.71167
L1D RFO       NON_SPEC    ACCESS:   13902790  HIT:   13899845  MISS:       2945  HIT %:    99.9788  MISS %:  0.0211828   MPKI: 0.014725
L1D COMMIT LOAD NON_SPEC    ACCESS:    4236142  HIT:    4235336  MISS:        806  HIT %:     99.981  MISS %:  0.0190267   MPKI: 0.00403
L1D COMMIT WRITE NON_SPEC    ACCESS:    2139570  HIT:     456770  MISS:    1682800  HIT %:    21.3487  MISS %:    78.6513   MPKI: 8.414
L1D PREFETCH  REQUESTED:          0  ISSUED:          0  USEFUL:          0  USELESS:          0
L1D USEFUL LOAD PREFETCHES:          0 PREFETCH ISSUED TO LOWER LEVEL:          0  ACCURACY: -nan
L1D TIMELY PREFETCHES:          0 LATE PREFETCHES: 0 DROPPED PREFETCHES: 0
L1D COMMIT LATE PREFETCHES: 0 MISSED OPPORTUNITY: 0 LATE IN PQ: 0 UNCOVERED: 0
L1D COMMIT LATE MSHR PREFETCHES: 0
L1D MPKI TOTAL: 14.5713 MSHR LATE: 0 PQ LATE: 0 COMMIT LATE: 0 MISSED OPPORTUNITY: 0 UNCOVERED: 0
L1D PREFETCHES SAME FILL-ORIGIN LEVEL: 0 DIFFERENT FILL-ORIGIN LEVEL: 0
L1D AVERAGE MISS LATENCY: 21.2954 cycles
L1D AVERAGE MISS LATENCY LOAD: 33.5921 cycles
L1D AVERAGE MISS LATENCY PREFETCH: -nan cycles
L1D AVERAGE MSHR OCCUPANCY: 0.244646
L1D MSHR FULL: 0
L1D RQ	ACCESS:   32746947	FORWARD:          0	MERGED:    1439075	TO_CACHE:   31307596
L1D WQ	ACCESS:   16180668	FORWARD:        276	MERGED:     131263	TO_CACHE:   16049405

L1D UNIQUE REGIONS ACCESSED: 0
L1D REGIONS CONFLICTS: 0
L1D Cross Page Prefetch Requests: 0
L1D Same Page Prefetch Requests: 0
L1D ROI Sum of L1D PQ occupancy: 0
L1D PREFETCHES PUSHED FROM L2C: 0
L1I SPEC fills:          0  NON-SPEC fills:          0
L1I Test counter :          0
L1I Leapfrog:          0
L1I MSHR merge:          0
L1I TOTAL     ACCESS:   35098224  HIT:   35098224  MISS:          0  HIT %:        100  MISS %:          0   MPKI: 0
L1I LOAD      TOTAL       ACCESS:   35098224  HIT:   35098224  MISS:          0  HIT %:        100  MISS %:          0   MPKI: 0
L1I LOAD      NON_SPEC    ACCESS:   35098224  HIT:   35098224  MISS:          0  HIT %:        100  MISS %:          0   MPKI: 0
L1I PREFETCH  REQUESTED:          0  ISSUED:          0  USEFUL:          0  USELESS:          0
L1I USEFUL LOAD PREFETCHES:          0 PREFETCH ISSUED TO LOWER LEVEL:          0  ACCURACY: -nan
L1I TIMELY PREFETCHES:          0 LATE PREFETCHES: 0 DROPPED PREFETCHES: 0
L1I COMMIT LATE PREFETCHES: 0 MISSED OPPORTUNITY: 0 LATE IN PQ: 0 UNCOVERED: 0
L1I COMMIT LATE MSHR PREFETCHES: 0
L1I MPKI TOTAL: 0 MSHR LATE: 0 PQ LATE: 0 COMMIT LATE: 0 MISSED OPPORTUNITY: 0 UNCOVERED: 0
L1I PREFETCHES SAME FILL-ORIGIN LEVEL: 0 DIFFERENT FILL-ORIGIN LEVEL: 0
L1I AVERAGE MISS LATENCY: -nan cycles
L1I AVERAGE MISS LATENCY LOAD: -nan cycles
L1I AVERAGE MISS LATENCY PREFETCH: -nan cycles
L1I AVERAGE MSHR OCCUPANCY: 0
L1I MSHR FULL: 0
L1I RQ	ACCESS:   46144375	FORWARD:          0	MERGED:   11046150	TO_CACHE:   35098225

BTB SPEC fills:          0  NON-SPEC fills:          0
BTB Test counter :          0
BTB Leapfrog:          0
BTB MSHR merge:          0
BTB TOTAL     ACCESS:    3509173  HIT:    3509164  MISS:          9  HIT %:    99.9997  MISS %: 0.000256471   MPKI: 4.5e-05
BTB BRANCH_DIRECT_JUMP	ACCESS:        876  HIT:        874  MISS:          2
BTB BRANCH_INDIRECT	ACCESS:          0  HIT:          0  MISS:          0
BTB BRANCH_CONDITIONAL	ACCESS:    3506545  HIT:    3506542  MISS:          3
BTB BRANCH_DIRECT_CALL	ACCESS:        876  HIT:        874  MISS:          2
BTB BRANCH_INDIRECT_CALL	ACCESS:          0  HIT:          0  MISS:          0
BTB BRANCH_RETURN	ACCESS:        876  HIT:        874  MISS:          2
BTB BRANCH_OTHER ACCESS:          0  HIT:          0  MISS:          0

L2C SPEC fills:          0  NON-SPEC fills:      33916
L2C Test counter :          0
L2C Leapfrog:          0
L2C MSHR merge:     157268
L2C TOTAL     ACCESS:    9869051  HIT:    7687339  MISS:    2181712  HIT %:    77.8934  MISS %:    22.1066   MPKI: 10.9086
L2C LOAD      TOTAL       ACCESS:    2913334  HIT:    2521189  MISS:     392145  HIT %:    86.5396  MISS %:    13.4604   MPKI: 1.96072
L2C LOAD      NON_SPEC    ACCESS:     971000  HIT:     937084  MISS:      33916  HIT %:    96.5071  MISS %:    3.49289   MPKI: 0.16958
L2C LOAD      SPEC        ACCESS:    1942334  HIT:    1584105  MISS:     358229  HIT %:    81.5568  MISS %:    18.4432   MPKI: 1.79114
L2C RFO       NON_SPEC    ACCESS:       2945  HIT:       2122  MISS:        823  HIT %:    72.0543  MISS %:    27.9457   MPKI: 0.004115
L2C PREFETCH  NON_SPEC    ACCESS:    4765472  HIT:    3292492  MISS:    1472980  HIT %:    69.0906  MISS %:    30.9094   MPKI: 7.3649
L2C WRITEBACK NON_SPEC    ACCESS:     660074  HIT:     660074  MISS:          0  HIT %:        100  MISS %:          0   MPKI: 0
L2C CLEAN_EVICTION NON_SPEC    ACCESS:    1389244  HIT:    1077084  MISS:     312160  HIT %:    77.5302  MISS %:    22.4698   MPKI: 1.5608
L2C COMMIT LOAD NON_SPEC    ACCESS:        806  HIT:        738  MISS:         68  HIT %:    91.5633  MISS %:    8.43672   MPKI: 0.00034
L2C LOAD TRANSLATION NON_SPEC    ACCESS:     137176  HIT:     133640  MISS:       3536  HIT %:    97.4223  MISS %:    2.57771   MPKI: 0.01768
L2C PREFETCH  REQUESTED:    5508140  ISSUED:    5507952  USEFUL:    1420729  USELESS:      52109
L2C USEFUL LOAD PREFETCHES:    1420729 PREFETCH ISSUED TO LOWER LEVEL:    1699952  ACCURACY: 83.5747
L2C TIMELY PREFETCHES:    1420729 LATE PREFETCHES: 157326 DROPPED PREFETCHES: 0
L2C COMMIT LATE PREFETCHES: 0 MISSED OPPORTUNITY: 0 LATE IN PQ: 0 UNCOVERED: 0
L2C COMMIT LATE MSHR PREFETCHES: 0
L2C MPKI TOTAL: 1.96072 MSHR LATE: 0.78663 PQ LATE: 0 COMMIT LATE: 0 MISSED OPPORTUNITY: 0 UNCOVERED: 0
L2C PREFETCHES SAME FILL-ORIGIN LEVEL: 1630307 DIFFERENT FILL-ORIGIN LEVEL: 69645
L2C AVERAGE MISS LATENCY: 154.152 cycles
L2C AVERAGE MISS LATENCY LOAD: 161.776 cycles
L2C AVERAGE MISS LATENCY PREFETCH: 184.749 cycles
L2C AVERAGE MSHR OCCUPANCY: 1.4694
L2C MSHR FULL: 0
L2C RQ	ACCESS:    3054261	FORWARD:          0	MERGED:          0	TO_CACHE:    3054261
L2C WQ	ACCESS:    2049318	FORWARD:          3	MERGED:          0	TO_CACHE:    2049318
L2C PQ	ACCESS:    5507952	FORWARD:          0	MERGED:     303157	TO_CACHE:    5204792

L2C Instructions Evicting Data 0
L2C Translations Evicting Data 3536
L2C Data Evicting Data 1504935
L2C Instructions Evicting Instructions 0
L2C Translations Evicting Instructions 0
L2C Data Evicting Instructions 0
L2C Instructions Evicting Translations 0
L2C Translations Evicting Translations 0
L2C Data Evicting Translations 2852
L2C Dense regions hint from L2: 0
PSCL5 SPEC fills:          0  NON-SPEC fills:          0
PSCL5 Test counter :          0
PSCL5 Leapfrog:          0
PSCL5 MSHR merge:          0
PSCL5 TOTAL     ACCESS:          0  HIT:          0  MISS:          0  HIT %:       -nan  MISS %:       -nan   MPKI: 0
PSCL5 PREFETCH  REQUESTED:          0  ISSUED:          0  USEFUL:          0  USELESS:          0
PSCL5 USEFUL LOAD PREFETCHES:          0 PREFETCH ISSUED TO LOWER LEVEL:          0  ACCURACY: -nan
PSCL5 TIMELY PREFETCHES:          0 LATE PREFETCHES: 0 DROPPED PREFETCHES: 0
PSCL5 COMMIT LATE PREFETCHES: 0 MISSED OPPORTUNITY: 0 LATE IN PQ: 0 UNCOVERED: 0
PSCL5 COMMIT LATE MSHR PREFETCHES: 0
PSCL5 MPKI TOTAL: 0 MSHR LATE: 0 PQ LATE: 0 COMMIT LATE: 0 MISSED OPPORTUNITY: 0 UNCOVERED: 0
PSCL5 PREFETCHES SAME FILL-ORIGIN LEVEL: 0 DIFFERENT FILL-ORIGIN LEVEL: 0

PSCL4 SPEC fills:          0  NON-SPEC fills:          0
PSCL4 Test counter :          0
PSCL4 Leapfrog:          0
PSCL4 MSHR merge:          0
PSCL4 TOTAL     ACCESS:          0  HIT:          0  MISS:          0  HIT %:       -nan  MISS %:       -nan   MPKI: 0
PSCL4 PREFETCH  REQUESTED:          0  ISSUED:          0  USEFUL:          0  USELESS:          0
PSCL4 USEFUL LOAD PREFETCHES:          0 PREFETCH ISSUED TO LOWER LEVEL:          0  ACCURACY: -nan
PSCL4 TIMELY PREFETCHES:          0 LATE PREFETCHES: 0 DROPPED PREFETCHES: 0
PSCL4 COMMIT LATE PREFETCHES: 0 MISSED OPPORTUNITY: 0 LATE IN PQ: 0 UNCOVERED: 0
PSCL4 COMMIT LATE MSHR PREFETCHES: 0
PSCL4 MPKI TOTAL: 0 MSHR LATE: 0 PQ LATE: 0 COMMIT LATE: 0 MISSED OPPORTUNITY: 0 UNCOVERED: 0
PSCL4 PREFETCHES SAME FILL-ORIGIN LEVEL: 0 DIFFERENT FILL-ORIGIN LEVEL: 0

PSCL3 SPEC fills:          0  NON-SPEC fills:          0
PSCL3 Test counter :          0
PSCL3 Leapfrog:          0
PSCL3 MSHR merge:          0
PSCL3 TOTAL     ACCESS:          0  HIT:          0  MISS:          0  HIT %:       -nan  MISS %:       -nan   MPKI: 0
PSCL3 PREFETCH  REQUESTED:          0  ISSUED:          0  USEFUL:          0  USELESS:          0
PSCL3 USEFUL LOAD PREFETCHES:          0 PREFETCH ISSUED TO LOWER LEVEL:          0  ACCURACY: -nan
PSCL3 TIMELY PREFETCHES:          0 LATE PREFETCHES: 0 DROPPED PREFETCHES: 0
PSCL3 COMMIT LATE PREFETCHES: 0 MISSED OPPORTUNITY: 0 LATE IN PQ: 0 UNCOVERED: 0
PSCL3 COMMIT LATE MSHR PREFETCHES: 0
PSCL3 MPKI TOTAL: 0 MSHR LATE: 0 PQ LATE: 0 COMMIT LATE: 0 MISSED OPPORTUNITY: 0 UNCOVERED: 0
PSCL3 PREFETCHES SAME FILL-ORIGIN LEVEL: 0 DIFFERENT FILL-ORIGIN LEVEL: 0

PSCL2 SPEC fills:          0  NON-SPEC fills:          0
PSCL2 Test counter :          0
PSCL2 Leapfrog:          0
PSCL2 MSHR merge:          0
PSCL2 TOTAL     ACCESS:          0  HIT:          0  MISS:          0  HIT %:       -nan  MISS %:       -nan   MPKI: 0
PSCL2 PREFETCH  REQUESTED:          0  ISSUED:          0  USEFUL:          0  USELESS:          0
PSCL2 USEFUL LOAD PREFETCHES:          0 PREFETCH ISSUED TO LOWER LEVEL:          0  ACCURACY: -nan
PSCL2 TIMELY PREFETCHES:          0 LATE PREFETCHES: 0 DROPPED PREFETCHES: 0
PSCL2 COMMIT LATE PREFETCHES: 0 MISSED OPPORTUNITY: 0 LATE IN PQ: 0 UNCOVERED: 0
PSCL2 COMMIT LATE MSHR PREFETCHES: 0
PSCL2 MPKI TOTAL: 0 MSHR LATE: 0 PQ LATE: 0 COMMIT LATE: 0 MISSED OPPORTUNITY: 0 UNCOVERED: 0
PSCL2 PREFETCHES SAME FILL-ORIGIN LEVEL: 0 DIFFERENT FILL-ORIGIN LEVEL: 0

LLC SPEC fills:          0  NON-SPEC fills:      17689
LLC Test counter :          0
LLC Leapfrog:          0
LLC MSHR merge:          0
LLC TOTAL     ACCESS:    3713169  HIT:    1729310  MISS:    1983859  HIT %:    46.5723  MISS %:    53.4277   MPKI: 9.91929
LLC LOAD      TOTAL       ACCESS:     234877  HIT:       5373  MISS:     229504  HIT %:    2.28758  MISS %:    97.7124   MPKI: 1.14752
LLC LOAD      NON_SPEC    ACCESS:      19405  HIT:       1716  MISS:      17689  HIT %:    8.84308  MISS %:    91.1569   MPKI: 0.088445
LLC LOAD      SPEC        ACCESS:     215472  HIT:       3657  MISS:     211815  HIT %:     1.6972  MISS %:    98.3028   MPKI: 1.05907
LLC RFO       NON_SPEC    ACCESS:        820  HIT:        819  MISS:          1  HIT %:     99.878  MISS %:   0.121951   MPKI: 5e-06
LLC PREFETCH  NON_SPEC    ACCESS:    1684993  HIT:     114604  MISS:    1570389  HIT %:    6.80145  MISS %:    93.1985   MPKI: 7.85194
LLC WRITEBACK NON_SPEC    ACCESS:     655980  HIT:     655970  MISS:         10  HIT %:    99.9985  MISS %: 0.00152444   MPKI: 5e-05
LLC CLEAN_EVICTION NON_SPEC    ACCESS:    1132950  HIT:     952533  MISS:     180417  HIT %:    84.0755  MISS %:    15.9245   MPKI: 0.902085
LLC COMMIT LOAD NON_SPEC    ACCESS:         13  HIT:         10  MISS:          3  HIT %:    76.9231  MISS %:    23.0769   MPKI: 1.5e-05
LLC LOAD TRANSLATION NON_SPEC    ACCESS:       3536  HIT:          1  MISS:       3535  HIT %:  0.0282805  MISS %:    99.9717   MPKI: 0.017675
LLC PREFETCH  REQUESTED:          0  ISSUED:          0  USEFUL:        375  USELESS:    1570147
LLC USEFUL LOAD PREFETCHES:        375 PREFETCH ISSUED TO LOWER LEVEL:    1570389  ACCURACY: 0.0238794
LLC TIMELY PREFETCHES:        375 LATE PREFETCHES: 0 DROPPED PREFETCHES: 0
LLC COMMIT LATE PREFETCHES: 0 MISSED OPPORTUNITY: 0 LATE IN PQ: 0 UNCOVERED: 0
LLC COMMIT LATE MSHR PREFETCHES: 0
LLC MPKI TOTAL: 1.14752 MSHR LATE: 0 PQ LATE: 0 COMMIT LATE: 0 MISSED OPPORTUNITY: 0 UNCOVERED: 0
LLC PREFETCHES SAME FILL-ORIGIN LEVEL: 4070 DIFFERENT FILL-ORIGIN LEVEL: 0
LLC AVERAGE MISS LATENCY: 147.786 cycles
LLC AVERAGE MISS LATENCY LOAD: 160.642 cycles
LLC AVERAGE MISS LATENCY PREFETCH: 162.834 cycles
LLC AVERAGE MSHR OCCUPANCY: 0.861239
LLC MSHR FULL: 0
LLC RQ	ACCESS:     239246	FORWARD:          0	MERGED:          0	TO_CACHE:     239246
LLC WQ	ACCESS:    1788930	FORWARD:         12	MERGED:          0	TO_CACHE:    1788930
LLC PQ	ACCESS:    1699952	FORWARD:          0	MERGED:      12362	TO_CACHE:    1687578

LLC Dense regions hint to LLC: 0

RAW hits: 3005
Loads Generated: 70169102
Loads sent to L1D: 70166092
Stores Generated: 14041094
Stores sent to L1D: 14041096
Major fault: 0 Minor fault: 34487
Allocated PAGES: 34487
Total Load insts: 87707259
Total Non-spec loads: 7490025
Percentage of speculative loads: 91.4602

LeapFrogging counter: 0
Commit hits: 23943350 miss: 40014416
Commit hit %: 37.4362 miss %: 62.5638
Commits not translated: 0
Loads retired: 2913334
Stores retired: 14041096
Cache fills: 2913334
L1D response latency: 33.5921 cycles
Load retirement latency: 54.4248 cycles
OOO test counter: 0
Discarded buffer inserts: 23943350 hits: 269162 hit %: 1.12416
Filter prediction accuracy: 99.9956
------------------
Depth Distribution
------------------
depth 0: 32089121
depth 1: 42927
depth 2: 691534
depth 3: 2600988
depth 4: 3209184
depth 5: 11180859
depth 6: 9606860
depth 7: 9117540
depth 8: 2494319
depth 9: 659005
depth 10: 916329
depth 11: 3423986
depth 12: 4489200
depth 13: 3446428
depth 14: 2322386
depth 15: 896038
depth 16: 381673
depth 17: 118810
depth 18: 20665
depth 19: 3122
depth 20: 342
depth 21: 33
depth 22: 6
depth 23: 2
depth 24: 5
depth 25: 2
depth 26: 0
depth 27: 15
depth 28: 0
depth 29: 6
Total: 87711385
------------------
ST read accesses: 70141892
ST write accesses: 27241
PT read accesses: 1933346787
PT write accesses: 45990012
FILTER read accesses: 464533083
FILTER write accesses: 17389396
GHR read accesses: 57906370
GHR write accesses: 9198230
PERC read accesses: 14025186558
PERC write accesses: 26136421
GHR counter read accesses: 140338266
GHR counter write accesses: 77021812
GHR ip read accesses: 243676620
GHR ip write accesses: 280676532
ST tag read accesses: 20806761014
ST tag write accesses: 121293768

DRAM Statistics
 CHANNEL 0
 RQ ROW_BUFFER_HIT:     320856  ROW_BUFFER_MISS:    1482576
 DBUS_CONGESTED:       8796
 WQ ROW_BUFFER_HIT:     721170  ROW_BUFFER_MISS:    1044654  FULL:          0

 AVG_CONGESTED_CYCLE: 6
 All warmup complete: 2
Channel 0 Bank busy for read cycles: 0
Channel 0 Bank busy for write cycles: 0
Channel 0
Rank 0
0banks busy for read cycles: 22107323
0banks busy for write cycles: 28830
1banks busy for read cycles: 87621941
1banks busy for write cycles: 3110965
2banks busy for read cycles: 43664410
2banks busy for write cycles: 1547946
3banks busy for read cycles: 7873461
3banks busy for write cycles: 1320673
4banks busy for read cycles: 3106293
4banks busy for write cycles: 1372174
5banks busy for read cycles: 1856607
5banks busy for write cycles: 1422363
6banks busy for read cycles: 1356424
6banks busy for write cycles: 1786962
7banks busy for read cycles: 549530
7banks busy for write cycles: 3763277
8banks busy for read cycles: 806052
8banks busy for write cycles: 32183516

CPU 0 Branch Prediction Accuracy: 99.9751% MPKI: 0.00438 Average ROB Occupancy at Mispredict: 104.071
Branch types
NOT_BRANCH: 196487432 98.2437%
BRANCH_DIRECT_JUMP: 876 0.000438%
BRANCH_INDIRECT: 0 0%
BRANCH_CONDITIONAL: 3509611 1.75481%
BRANCH_DIRECT_CALL: 876 0.000438%
BRANCH_INDIRECT_CALL: 0 0%
BRANCH_RETURN: 876 0.000438%
BRANCH_OTHER: 0 0%

DRAM PAGES: 1048576
Allocated PAGES: 34487
