Initialize SIGNATURE TABLE
ST_SET: 1
ST_WAY: 256
ST_TAG_BIT: 16
ST_TAG_MASK: ffff

Initialize PATTERN TABLE
PT_SET: 512
PT_WAY: 4
SIG_DELTA_BIT: 7
C_SIG_BIT: 4
C_DELTA_BIT: 4

Initialize PREFETCH FILTER
FILTER_SET: 1024

Initialize PERCEPTRON
PERC_ENTRIES: 4096
PERC_FEATURES: 9

*** ChampSim Multicore Out-of-Order Simulator ***

Warmup Instructions: 50000000
Simulation Instructions: 200000000
Number of CPUs: 1
LLC sets: 2048
LLC ways: 16
L0D sets: 16
L0D ways: 2
ROB size: 352
LQ size: 128
SQ size: 72
Secure Berti: OFF
Berti: OFF
Berti Fill: OFF
On commit prefetching: ON
Hit-based filter: ON
Time-guarding: ON
Free-slotting: ON
Leap-frogging: ON
Train prefetcher on L0D bypass: OFF
No translation penalty for prefetchers: OFF
Prefetch to L0D only: OFF
Prefetch to L1D only: OFF
Clean evictions: ON
Commit loads: ON
Commit write: ON
Fill commit loads to L2C, LLC: ON
DRAM IO FREQUENCY: 6400
ROB SIZE: 352
Off-chip DRAM Size: 4096 MB Channels: 1 Width: 64-bit Data Rate: 6400 MT/s
CPU 0 runs /home/sumon/secure_berti/GhostMinion/../../traces/spec/649.fotonik3d_s-1176B.champsimtrace.xz
.xz
BTB has LRU replacement policy
ITLB has LRU replacement policy
DTLB has LRU replacement policy
STLB has LRU replacement policy
L1I has LRU replacement policy
L0D has LRU replacement policy
L1D has LRU replacement policy
PERC_ENTRIES: 4096
L2C has LRU replacement policy
LLC has LRU replacement policy
Heartbeat CPU 0 instructions: 10000003 cycles: 3147666 heartbeat IPC: 3.17696 cumulative IPC: 3.17696 (Simulation time: 0 hr 0 min 32 sec) 
Heartbeat CPU 0 instructions: 20000002 cycles: 6295076 heartbeat IPC: 3.17722 cumulative IPC: 3.17709 (Simulation time: 0 hr 1 min 3 sec) 
Heartbeat CPU 0 instructions: 30000000 cycles: 9442566 heartbeat IPC: 3.17713 cumulative IPC: 3.1771 (Simulation time: 0 hr 1 min 35 sec) 
Heartbeat CPU 0 instructions: 40000003 cycles: 12590089 heartbeat IPC: 3.1771 cumulative IPC: 3.1771 (Simulation time: 0 hr 2 min 7 sec) 
Heartbeat CPU 0 instructions: 50000001 cycles: 15737593 heartbeat IPC: 3.17712 cumulative IPC: 3.17711 (Simulation time: 0 hr 2 min 39 sec) 

Warmup complete CPU 0 instructions: 50000001 cycles: 15737593 (Simulation time: 0 hr 2 min 39 sec) 

Heartbeat CPU 0 instructions: 60000000 cycles: 28106361 heartbeat IPC: 0.808488 cumulative IPC: 0.808488 (Simulation time: 0 hr 3 min 19 sec) 
Heartbeat CPU 0 instructions: 70000000 cycles: 40504026 heartbeat IPC: 0.806603 cumulative IPC: 0.807545 (Simulation time: 0 hr 3 min 58 sec) 
Heartbeat CPU 0 instructions: 80000002 cycles: 52910338 heartbeat IPC: 0.806041 cumulative IPC: 0.807043 (Simulation time: 0 hr 4 min 38 sec) 
Heartbeat CPU 0 instructions: 90000000 cycles: 65291319 heartbeat IPC: 0.80769 cumulative IPC: 0.807205 (Simulation time: 0 hr 5 min 17 sec) 
Heartbeat CPU 0 instructions: 100000000 cycles: 77674743 heartbeat IPC: 0.807531 cumulative IPC: 0.80727 (Simulation time: 0 hr 5 min 56 sec) 
Heartbeat CPU 0 instructions: 110000000 cycles: 90049381 heartbeat IPC: 0.808104 cumulative IPC: 0.807409 (Simulation time: 0 hr 6 min 36 sec) 
Heartbeat CPU 0 instructions: 120000001 cycles: 102381228 heartbeat IPC: 0.810909 cumulative IPC: 0.807907 (Simulation time: 0 hr 7 min 15 sec) 
Heartbeat CPU 0 instructions: 130000003 cycles: 114746576 heartbeat IPC: 0.808712 cumulative IPC: 0.808008 (Simulation time: 0 hr 7 min 55 sec) 
Heartbeat CPU 0 instructions: 140000003 cycles: 127134107 heartbeat IPC: 0.807263 cumulative IPC: 0.807925 (Simulation time: 0 hr 8 min 34 sec) 
Heartbeat CPU 0 instructions: 150000001 cycles: 139504719 heartbeat IPC: 0.808367 cumulative IPC: 0.807969 (Simulation time: 0 hr 9 min 13 sec) 
Heartbeat CPU 0 instructions: 160000000 cycles: 151876033 heartbeat IPC: 0.808321 cumulative IPC: 0.808001 (Simulation time: 0 hr 9 min 53 sec) 
Heartbeat CPU 0 instructions: 170000000 cycles: 164265761 heartbeat IPC: 0.80712 cumulative IPC: 0.807928 (Simulation time: 0 hr 10 min 32 sec) 
Heartbeat CPU 0 instructions: 180000001 cycles: 176642832 heartbeat IPC: 0.807946 cumulative IPC: 0.807929 (Simulation time: 0 hr 11 min 12 sec) 
Heartbeat CPU 0 instructions: 190000002 cycles: 189039586 heartbeat IPC: 0.806663 cumulative IPC: 0.807838 (Simulation time: 0 hr 11 min 51 sec) 
Heartbeat CPU 0 instructions: 200000003 cycles: 201424439 heartbeat IPC: 0.807438 cumulative IPC: 0.807812 (Simulation time: 0 hr 12 min 30 sec) 
Heartbeat CPU 0 instructions: 210000000 cycles: 213488707 heartbeat IPC: 0.828894 cumulative IPC: 0.809098 (Simulation time: 0 hr 13 min 8 sec) 
Heartbeat CPU 0 instructions: 220000000 cycles: 223501479 heartbeat IPC: 0.998724 cumulative IPC: 0.818237 (Simulation time: 0 hr 13 min 44 sec) 
Heartbeat CPU 0 instructions: 230000002 cycles: 233518975 heartbeat IPC: 0.998254 cumulative IPC: 0.826517 (Simulation time: 0 hr 14 min 20 sec) 
Heartbeat CPU 0 instructions: 240000002 cycles: 243534537 heartbeat IPC: 0.998446 cumulative IPC: 0.834076 (Simulation time: 0 hr 14 min 55 sec) 
Heartbeat CPU 0 instructions: 250000000 cycles: 253553398 heartbeat IPC: 0.998117 cumulative IPC: 0.840987 (Simulation time: 0 hr 15 min 30 sec) 
Finished CPU 0 instructions: 200000003 cycles: 237815806 cumulative IPC: 0.840987 (Simulation time: 0 hr 15 min 30 sec) 
 Instruction ID: 250000298

ChampSim completed all CPUs

Region of Interest Statistics

CPU 0 cumulative IPC: 0.840987 instructions: 200000003 cycles: 237815806
ITLB SPEC fills:          0  NON-SPEC fills:          0
ITLB Test counter :          0
ITLB Leapfrog:          0
ITLB MSHR merge:          0
ITLB TOTAL     ACCESS:   28090368  HIT:   28090368  MISS:          0  HIT %:        100  MISS %:          0   MPKI: 0
ITLB LOAD TRANSLATION NON_SPEC    ACCESS:   28090368  HIT:   28090368  MISS:          0  HIT %:        100  MISS %:          0   MPKI: 0
ITLB PREFETCH  REQUESTED:          0  ISSUED:          0  USEFUL:          0  USELESS:          0
ITLB USEFUL LOAD PREFETCHES:          0 PREFETCH ISSUED TO LOWER LEVEL:          0  ACCURACY: -nan
ITLB TIMELY PREFETCHES:          0 LATE PREFETCHES: 0 DROPPED PREFETCHES: 0
ITLB COMMIT LATE PREFETCHES: 0 MISSED OPPORTUNITY: 0 LATE IN PQ: 0 UNCOVERED: 0
ITLB COMMIT LATE MSHR PREFETCHES: 0
ITLB MPKI TOTAL: 0 MSHR LATE: 0 PQ LATE: 0 COMMIT LATE: 0 MISSED OPPORTUNITY: 0 UNCOVERED: 0
ITLB PREFETCHES SAME FILL-ORIGIN LEVEL: 0 DIFFERENT FILL-ORIGIN LEVEL: 0
ITLB AVERAGE MISS LATENCY: -nan cycles
ITLB AVERAGE MISS LATENCY LOAD: -nan cycles
ITLB AVERAGE MISS LATENCY PREFETCH: -nan cycles
ITLB AVERAGE MSHR OCCUPANCY: 0
ITLB MSHR FULL: 0
ITLB RQ	ACCESS:   35118467	FORWARD:          0	MERGED:    7028100	TO_CACHE:   28090367

DTLB SPEC fills:          0  NON-SPEC fills:          0
DTLB Test counter :          0
DTLB Leapfrog:          0
DTLB MSHR merge:          0
DTLB TOTAL     ACCESS:   34061590  HIT:   34014606  MISS:      46984  HIT %:    99.8621  MISS %:   0.137938   MPKI: 0.23492
DTLB LOAD TRANSLATION NON_SPEC    ACCESS:   34061590  HIT:   34014606  MISS:      46984  HIT %:    99.8621  MISS %:   0.137938   MPKI: 0.23492
DTLB PREFETCH  REQUESTED:          0  ISSUED:          0  USEFUL:          0  USELESS:          0
DTLB USEFUL LOAD PREFETCHES:          0 PREFETCH ISSUED TO LOWER LEVEL:          0  ACCURACY: -nan
DTLB TIMELY PREFETCHES:          0 LATE PREFETCHES: 0 DROPPED PREFETCHES: 0
DTLB COMMIT LATE PREFETCHES: 0 MISSED OPPORTUNITY: 0 LATE IN PQ: 0 UNCOVERED: 0
DTLB COMMIT LATE MSHR PREFETCHES: 0
DTLB MPKI TOTAL: 0 MSHR LATE: 0 PQ LATE: 0 COMMIT LATE: 0 MISSED OPPORTUNITY: 0 UNCOVERED: 0
DTLB PREFETCHES SAME FILL-ORIGIN LEVEL: 0 DIFFERENT FILL-ORIGIN LEVEL: 0
DTLB AVERAGE MISS LATENCY: 114.886 cycles
DTLB AVERAGE MISS LATENCY LOAD: -nan cycles
DTLB AVERAGE MISS LATENCY PREFETCH: -nan cycles
DTLB AVERAGE MSHR OCCUPANCY: 0.00676651
DTLB MSHR FULL: 0
DTLB RQ	ACCESS:   53809968	FORWARD:          0	MERGED:   19742023	TO_CACHE:   34067945

STLB SPEC fills:          0  NON-SPEC fills:          0
STLB Test counter :          0
STLB Leapfrog:          0
STLB MSHR merge:          0
STLB TOTAL     ACCESS:      46984  HIT:      19538  MISS:      27446  HIT %:    41.5844  MISS %:    58.4156   MPKI: 0.13723
STLB LOAD TRANSLATION NON_SPEC    ACCESS:      46984  HIT:      19538  MISS:      27446  HIT %:    41.5844  MISS %:    58.4156   MPKI: 0.13723
STLB PREFETCH  REQUESTED:          0  ISSUED:          0  USEFUL:          0  USELESS:          0
STLB USEFUL LOAD PREFETCHES:          0 PREFETCH ISSUED TO LOWER LEVEL:          0  ACCURACY: -nan
STLB TIMELY PREFETCHES:          0 LATE PREFETCHES: 0 DROPPED PREFETCHES: 0
STLB COMMIT LATE PREFETCHES: 0 MISSED OPPORTUNITY: 0 LATE IN PQ: 0 UNCOVERED: 0
STLB COMMIT LATE MSHR PREFETCHES: 0
STLB MPKI TOTAL: 0 MSHR LATE: 0 PQ LATE: 0 COMMIT LATE: 0 MISSED OPPORTUNITY: 0 UNCOVERED: 0
STLB PREFETCHES SAME FILL-ORIGIN LEVEL: 0 DIFFERENT FILL-ORIGIN LEVEL: 0
STLB AVERAGE MISS LATENCY: 181.234 cycles
STLB AVERAGE MISS LATENCY LOAD: -nan cycles
STLB AVERAGE MISS LATENCY PREFETCH: -nan cycles
STLB AVERAGE MSHR OCCUPANCY: 0.00391623
STLB MSHR FULL: 0
STLB RQ	ACCESS:      46984	FORWARD:          0	MERGED:          0	TO_CACHE:      46984

STLB Hit, L1D data hit: 0
STLB Hit, L2C data hit: 0
STLB Hit, LLC data hit: 0
STLB Hit, LLC data miss: 0
STLB STLB hints to L2: 0
L0D SPEC fills:   21719561  NON-SPEC fills:          0
L0D TimeGuard Request with older TS:      36622 Restricted eviction:        721 read:     388773
L0D Test counter :          0
L0D Leapfrog:          0
L0D MSHR merge:    5975225
L0D TOTAL     ACCESS:   33793646  HIT:    9501817  MISS:   24291829  HIT %:    28.1172  MISS %:    71.8828   MPKI: 121.459
L0D LOAD      TOTAL       ACCESS:   33793646  HIT:    9501817  MISS:   24291829  HIT %:    28.1172  MISS %:    71.8828   MPKI: 121.459
L0D LOAD      NON_SPEC    ACCESS:    2574296  HIT:       2749  MISS:    2571547  HIT %:   0.106786  MISS %:    99.8932   MPKI: 12.8577
L0D LOAD      SPEC        ACCESS:   31219350  HIT:    9499068  MISS:   21720282  HIT %:    30.4269  MISS %:    69.5731   MPKI: 108.601
L0D PREFETCH  REQUESTED:          0  ISSUED:          0  USEFUL:          0  USELESS:          0
L0D USEFUL LOAD PREFETCHES:          0 PREFETCH ISSUED TO LOWER LEVEL:          0  ACCURACY: -nan
L0D TIMELY PREFETCHES:          0 LATE PREFETCHES: 0 DROPPED PREFETCHES: 0
L0D COMMIT LATE PREFETCHES: 0 MISSED OPPORTUNITY: 0 LATE IN PQ: 0 UNCOVERED: 0
L0D COMMIT LATE MSHR PREFETCHES: 0
L0D MPKI TOTAL: 151.335 MSHR LATE: 0 PQ LATE: 0 COMMIT LATE: 0 MISSED OPPORTUNITY: 0 UNCOVERED: 0
L0D PREFETCHES SAME FILL-ORIGIN LEVEL: 0 DIFFERENT FILL-ORIGIN LEVEL: 0
L0D AVERAGE MISS LATENCY: 11.8476 cycles
L0D AVERAGE MISS LATENCY LOAD: 11.8476 cycles
L0D AVERAGE MISS LATENCY PREFETCH: -nan cycles
L0D AVERAGE MSHR OCCUPANCY: 1.29491
L0D MSHR FULL: 1.00581e-07
L0D RQ	ACCESS:   70166209	FORWARD:          0	MERGED:   30397339	TO_CACHE:   39768870
L0D WQ	ACCESS:   14041098	FORWARD:          0	MERGED:          0	TO_CACHE:   14041098

L1D SPEC fills:          0  NON-SPEC fills:     749989
L1D Test counter :          0
L1D Leapfrog:          0
L1D MSHR merge:       1008
L1D TOTAL     ACCESS:   45795106  HIT:   40994057  MISS:    4801049  HIT %:    89.5162  MISS %:    10.4838   MPKI: 24.0052
L1D LOAD      TOTAL       ACCESS:   24290821  HIT:   21396862  MISS:    2893959  HIT %:    88.0862  MISS %:    11.9138   MPKI: 14.4698
L1D LOAD      NON_SPEC    ACCESS:    2571510  HIT:    1821521  MISS:     749989  HIT %:    70.8347  MISS %:    29.1653   MPKI: 3.74994
L1D LOAD      SPEC        ACCESS:   21719311  HIT:   19575341  MISS:    2143970  HIT %:    90.1287  MISS %:    9.87126   MPKI: 10.7198
L1D RFO       NON_SPEC    ACCESS:   13907373  HIT:   13904651  MISS:       2722  HIT %:    99.9804  MISS %:  0.0195724   MPKI: 0.01361
L1D COMMIT LOAD NON_SPEC    ACCESS:    5225367  HIT:    5223942  MISS:       1425  HIT %:    99.9727  MISS %:  0.0272708   MPKI: 0.007125
L1D COMMIT WRITE NON_SPEC    ACCESS:    2371545  HIT:     468602  MISS:    1902943  HIT %:    19.7594  MISS %:    80.2406   MPKI: 9.51471
L1D PREFETCH  REQUESTED:          0  ISSUED:          0  USEFUL:          0  USELESS:          0
L1D USEFUL LOAD PREFETCHES:          0 PREFETCH ISSUED TO LOWER LEVEL:          0  ACCURACY: -nan
L1D TIMELY PREFETCHES:          0 LATE PREFETCHES: 0 DROPPED PREFETCHES: 0
L1D COMMIT LATE PREFETCHES: 0 MISSED OPPORTUNITY: 0 LATE IN PQ: 0 UNCOVERED: 0
L1D COMMIT LATE MSHR PREFETCHES: 0
L1D MPKI TOTAL: 14.4748 MSHR LATE: 0 PQ LATE: 0 COMMIT LATE: 0 MISSED OPPORTUNITY: 0 UNCOVERED: 0
L1D PREFETCHES SAME FILL-ORIGIN LEVEL: 0 DIFFERENT FILL-ORIGIN LEVEL: 0
L1D AVERAGE MISS LATENCY: 33.644 cycles
L1D AVERAGE MISS LATENCY LOAD: 55.7838 cycles
L1D AVERAGE MISS LATENCY PREFETCH: -nan cycles
L1D AVERAGE MSHR OCCUPANCY: 0.348249
L1D MSHR FULL: 0
L1D RQ	ACCESS:   31882415	FORWARD:          0	MERGED:    2363983	TO_CACHE:   29517996
L1D WQ	ACCESS:   16412642	FORWARD:        436	MERGED:     126723	TO_CACHE:   16285919

L1D UNIQUE REGIONS ACCESSED: 0
L1D REGIONS CONFLICTS: 0
L1D Cross Page Prefetch Requests: 0
L1D Same Page Prefetch Requests: 0
L1D ROI Sum of L1D PQ occupancy: 0
L1D PREFETCHES PUSHED FROM L2C: 0
L1I SPEC fills:          0  NON-SPEC fills:          0
L1I Test counter :          0
L1I Leapfrog:          0
L1I MSHR merge:          0
L1I TOTAL     ACCESS:   35118466  HIT:   35118466  MISS:          0  HIT %:        100  MISS %:          0   MPKI: 0
L1I LOAD      TOTAL       ACCESS:   35118466  HIT:   35118466  MISS:          0  HIT %:        100  MISS %:          0   MPKI: 0
L1I LOAD      NON_SPEC    ACCESS:   35118466  HIT:   35118466  MISS:          0  HIT %:        100  MISS %:          0   MPKI: 0
L1I PREFETCH  REQUESTED:          0  ISSUED:          0  USEFUL:          0  USELESS:          0
L1I USEFUL LOAD PREFETCHES:          0 PREFETCH ISSUED TO LOWER LEVEL:          0  ACCURACY: -nan
L1I TIMELY PREFETCHES:          0 LATE PREFETCHES: 0 DROPPED PREFETCHES: 0
L1I COMMIT LATE PREFETCHES: 0 MISSED OPPORTUNITY: 0 LATE IN PQ: 0 UNCOVERED: 0
L1I COMMIT LATE MSHR PREFETCHES: 0
L1I MPKI TOTAL: 0 MSHR LATE: 0 PQ LATE: 0 COMMIT LATE: 0 MISSED OPPORTUNITY: 0 UNCOVERED: 0
L1I PREFETCHES SAME FILL-ORIGIN LEVEL: 0 DIFFERENT FILL-ORIGIN LEVEL: 0
L1I AVERAGE MISS LATENCY: -nan cycles
L1I AVERAGE MISS LATENCY LOAD: -nan cycles
L1I AVERAGE MISS LATENCY PREFETCH: -nan cycles
L1I AVERAGE MSHR OCCUPANCY: 0
L1I MSHR FULL: 0
L1I RQ	ACCESS:   46895217	FORWARD:          0	MERGED:   11776750	TO_CACHE:   35118467

BTB SPEC fills:          0  NON-SPEC fills:          0
BTB Test counter :          0
BTB Leapfrog:          0
BTB MSHR merge:          0
BTB TOTAL     ACCESS:    3509178  HIT:    3509169  MISS:          9  HIT %:    99.9997  MISS %: 0.00025647   MPKI: 4.5e-05
BTB BRANCH_DIRECT_JUMP	ACCESS:        876  HIT:        874  MISS:          2
BTB BRANCH_INDIRECT	ACCESS:          0  HIT:          0  MISS:          0
BTB BRANCH_CONDITIONAL	ACCESS:    3506550  HIT:    3506547  MISS:          3
BTB BRANCH_DIRECT_CALL	ACCESS:        876  HIT:        874  MISS:          2
BTB BRANCH_INDIRECT_CALL	ACCESS:          0  HIT:          0  MISS:          0
BTB BRANCH_RETURN	ACCESS:        876  HIT:        874  MISS:          2
BTB BRANCH_OTHER ACCESS:          0  HIT:          0  MISS:          0

L2C SPEC fills:          0  NON-SPEC fills:      45234
L2C Test counter :          0
L2C Leapfrog:          0
L2C MSHR merge:     307006
L2C TOTAL     ACCESS:    8525504  HIT:    6026302  MISS:    2499202  HIT %:    70.6856  MISS %:    29.3144   MPKI: 12.496
L2C LOAD      TOTAL       ACCESS:    2893959  HIT:    2123075  MISS:     770884  HIT %:    73.3623  MISS %:    26.6377   MPKI: 3.85442
L2C LOAD      NON_SPEC    ACCESS:     749989  HIT:     704755  MISS:      45234  HIT %:    93.9687  MISS %:    6.03129   MPKI: 0.22617
L2C LOAD      SPEC        ACCESS:    2143970  HIT:    1418320  MISS:     725650  HIT %:    66.1539  MISS %:    33.8461   MPKI: 3.62825
L2C RFO       NON_SPEC    ACCESS:       2722  HIT:       2696  MISS:         26  HIT %:    99.0448  MISS %:    0.95518   MPKI: 0.00013
L2C PREFETCH  NON_SPEC    ACCESS:    3425756  HIT:    2371737  MISS:    1054019  HIT %:    69.2325  MISS %:    30.7675   MPKI: 5.27009
L2C WRITEBACK NON_SPEC    ACCESS:     499549  HIT:     499549  MISS:          0  HIT %:        100  MISS %:          0   MPKI: 0
L2C CLEAN_EVICTION NON_SPEC    ACCESS:    1564953  HIT:     894351  MISS:     670602  HIT %:    57.1487  MISS %:    42.8513   MPKI: 3.35301
L2C COMMIT LOAD NON_SPEC    ACCESS:       1425  HIT:       1262  MISS:        163  HIT %:    88.5614  MISS %:    11.4386   MPKI: 0.000815
L2C LOAD TRANSLATION NON_SPEC    ACCESS:     137140  HIT:     133632  MISS:       3508  HIT %:     97.442  MISS %:    2.55797   MPKI: 0.01754
L2C PREFETCH  REQUESTED:    4460500  ISSUED:    4460462  USEFUL:     998861  USELESS:      55155
L2C USEFUL LOAD PREFETCHES:     998861 PREFETCH ISSUED TO LOWER LEVEL:    1364003  ACCURACY: 73.2301
L2C TIMELY PREFETCHES:     998861 LATE PREFETCHES: 307162 DROPPED PREFETCHES: 0
L2C COMMIT LATE PREFETCHES: 0 MISSED OPPORTUNITY: 0 LATE IN PQ: 0 UNCOVERED: 0
L2C COMMIT LATE MSHR PREFETCHES: 0
L2C MPKI TOTAL: 3.85442 MSHR LATE: 1.53581 PQ LATE: 0 COMMIT LATE: 0 MISSED OPPORTUNITY: 0 UNCOVERED: 0
L2C PREFETCHES SAME FILL-ORIGIN LEVEL: 1361183 DIFFERENT FILL-ORIGIN LEVEL: 2820
L2C AVERAGE MISS LATENCY: 133.968 cycles
L2C AVERAGE MISS LATENCY LOAD: 168.086 cycles
L2C AVERAGE MISS LATENCY PREFETCH: 194.015 cycles
L2C AVERAGE MSHR OCCUPANCY: 1.30739
L2C MSHR FULL: 0
L2C RQ	ACCESS:    3035246	FORWARD:          0	MERGED:          0	TO_CACHE:    3035246
L2C WQ	ACCESS:    2064502	FORWARD:          5	MERGED:          0	TO_CACHE:    2064502
L2C PQ	ACCESS:    4460462	FORWARD:          0	MERGED:     300848	TO_CACHE:    4159609

L2C Instructions Evicting Data 0
L2C Translations Evicting Data 3500
L2C Data Evicting Data 1097271
L2C Instructions Evicting Instructions 0
L2C Translations Evicting Instructions 0
L2C Data Evicting Instructions 0
L2C Instructions Evicting Translations 0
L2C Translations Evicting Translations 8
L2C Data Evicting Translations 2171
L2C Dense regions hint from L2: 0
PSCL5 SPEC fills:          0  NON-SPEC fills:          0
PSCL5 Test counter :          0
PSCL5 Leapfrog:          0
PSCL5 MSHR merge:          0
PSCL5 TOTAL     ACCESS:          0  HIT:          0  MISS:          0  HIT %:       -nan  MISS %:       -nan   MPKI: 0
PSCL5 PREFETCH  REQUESTED:          0  ISSUED:          0  USEFUL:          0  USELESS:          0
PSCL5 USEFUL LOAD PREFETCHES:          0 PREFETCH ISSUED TO LOWER LEVEL:          0  ACCURACY: -nan
PSCL5 TIMELY PREFETCHES:          0 LATE PREFETCHES: 0 DROPPED PREFETCHES: 0
PSCL5 COMMIT LATE PREFETCHES: 0 MISSED OPPORTUNITY: 0 LATE IN PQ: 0 UNCOVERED: 0
PSCL5 COMMIT LATE MSHR PREFETCHES: 0
PSCL5 MPKI TOTAL: 0 MSHR LATE: 0 PQ LATE: 0 COMMIT LATE: 0 MISSED OPPORTUNITY: 0 UNCOVERED: 0
PSCL5 PREFETCHES SAME FILL-ORIGIN LEVEL: 0 DIFFERENT FILL-ORIGIN LEVEL: 0

PSCL4 SPEC fills:          0  NON-SPEC fills:          0
PSCL4 Test counter :          0
PSCL4 Leapfrog:          0
PSCL4 MSHR merge:          0
PSCL4 TOTAL     ACCESS:          0  HIT:          0  MISS:          0  HIT %:       -nan  MISS %:       -nan   MPKI: 0
PSCL4 PREFETCH  REQUESTED:          0  ISSUED:          0  USEFUL:          0  USELESS:          0
PSCL4 USEFUL LOAD PREFETCHES:          0 PREFETCH ISSUED TO LOWER LEVEL:          0  ACCURACY: -nan
PSCL4 TIMELY PREFETCHES:          0 LATE PREFETCHES: 0 DROPPED PREFETCHES: 0
PSCL4 COMMIT LATE PREFETCHES: 0 MISSED OPPORTUNITY: 0 LATE IN PQ: 0 UNCOVERED: 0
PSCL4 COMMIT LATE MSHR PREFETCHES: 0
PSCL4 MPKI TOTAL: 0 MSHR LATE: 0 PQ LATE: 0 COMMIT LATE: 0 MISSED OPPORTUNITY: 0 UNCOVERED: 0
PSCL4 PREFETCHES SAME FILL-ORIGIN LEVEL: 0 DIFFERENT FILL-ORIGIN LEVEL: 0

PSCL3 SPEC fills:          0  NON-SPEC fills:          0
PSCL3 Test counter :          0
PSCL3 Leapfrog:          0
PSCL3 MSHR merge:          0
PSCL3 TOTAL     ACCESS:          0  HIT:          0  MISS:          0  HIT %:       -nan  MISS %:       -nan   MPKI: 0
PSCL3 PREFETCH  REQUESTED:          0  ISSUED:          0  USEFUL:          0  USELESS:          0
PSCL3 USEFUL LOAD PREFETCHES:          0 PREFETCH ISSUED TO LOWER LEVEL:          0  ACCURACY: -nan
PSCL3 TIMELY PREFETCHES:          0 LATE PREFETCHES: 0 DROPPED PREFETCHES: 0
PSCL3 COMMIT LATE PREFETCHES: 0 MISSED OPPORTUNITY: 0 LATE IN PQ: 0 UNCOVERED: 0
PSCL3 COMMIT LATE MSHR PREFETCHES: 0
PSCL3 MPKI TOTAL: 0 MSHR LATE: 0 PQ LATE: 0 COMMIT LATE: 0 MISSED OPPORTUNITY: 0 UNCOVERED: 0
PSCL3 PREFETCHES SAME FILL-ORIGIN LEVEL: 0 DIFFERENT FILL-ORIGIN LEVEL: 0

PSCL2 SPEC fills:          0  NON-SPEC fills:          0
PSCL2 Test counter :          0
PSCL2 Leapfrog:          0
PSCL2 MSHR merge:          0
PSCL2 TOTAL     ACCESS:          0  HIT:          0  MISS:          0  HIT %:       -nan  MISS %:       -nan   MPKI: 0
PSCL2 PREFETCH  REQUESTED:          0  ISSUED:          0  USEFUL:          0  USELESS:          0
PSCL2 USEFUL LOAD PREFETCHES:          0 PREFETCH ISSUED TO LOWER LEVEL:          0  ACCURACY: -nan
PSCL2 TIMELY PREFETCHES:          0 LATE PREFETCHES: 0 DROPPED PREFETCHES: 0
PSCL2 COMMIT LATE PREFETCHES: 0 MISSED OPPORTUNITY: 0 LATE IN PQ: 0 UNCOVERED: 0
PSCL2 COMMIT LATE MSHR PREFETCHES: 0
PSCL2 MPKI TOTAL: 0 MSHR LATE: 0 PQ LATE: 0 COMMIT LATE: 0 MISSED OPPORTUNITY: 0 UNCOVERED: 0
PSCL2 PREFETCHES SAME FILL-ORIGIN LEVEL: 0 DIFFERENT FILL-ORIGIN LEVEL: 0

LLC SPEC fills:          0  NON-SPEC fills:      12865
LLC Test counter :          0
LLC Leapfrog:          0
LLC MSHR merge:          0
LLC TOTAL     ACCESS:    3595423  HIT:    1388962  MISS:    2206461  HIT %:    38.6314  MISS %:    61.3686   MPKI: 11.0323
LLC LOAD      TOTAL       ACCESS:     463878  HIT:       8297  MISS:     455581  HIT %:    1.78862  MISS %:    98.2114   MPKI: 2.2779
LLC LOAD      NON_SPEC    ACCESS:      15614  HIT:       2749  MISS:      12865  HIT %:     17.606  MISS %:     82.394   MPKI: 0.064325
LLC LOAD      SPEC        ACCESS:     448264  HIT:       5548  MISS:     442716  HIT %:    1.23766  MISS %:    98.7623   MPKI: 2.21358
LLC RFO       NON_SPEC    ACCESS:         20  HIT:         20  MISS:          0  HIT %:        100  MISS %:          0   MPKI: 0
LLC PREFETCH  NON_SPEC    ACCESS:    1363433  HIT:      13501  MISS:    1349932  HIT %:   0.990221  MISS %:    99.0098   MPKI: 6.74966
LLC WRITEBACK NON_SPEC    ACCESS:     494822  HIT:     494783  MISS:         39  HIT %:    99.9921  MISS %: 0.00788162   MPKI: 0.000195
LLC CLEAN_EVICTION NON_SPEC    ACCESS:    1269749  HIT:     872351  MISS:     397398  HIT %:    68.7026  MISS %:    31.2974   MPKI: 1.98699
LLC COMMIT LOAD NON_SPEC    ACCESS:         13  HIT:          9  MISS:          4  HIT %:    69.2308  MISS %:    30.7692   MPKI: 2e-05
LLC LOAD TRANSLATION NON_SPEC    ACCESS:       3508  HIT:          1  MISS:       3507  HIT %:  0.0285063  MISS %:    99.9715   MPKI: 0.017535
LLC PREFETCH  REQUESTED:          0  ISSUED:          0  USEFUL:        330  USELESS:    1349977
LLC USEFUL LOAD PREFETCHES:        330 PREFETCH ISSUED TO LOWER LEVEL:    1349932  ACCURACY: 0.0244457
LLC TIMELY PREFETCHES:        330 LATE PREFETCHES: 0 DROPPED PREFETCHES: 0
LLC COMMIT LATE PREFETCHES: 0 MISSED OPPORTUNITY: 0 LATE IN PQ: 0 UNCOVERED: 0
LLC COMMIT LATE MSHR PREFETCHES: 0
LLC MPKI TOTAL: 2.2779 MSHR LATE: 0 PQ LATE: 0 COMMIT LATE: 0 MISSED OPPORTUNITY: 0 UNCOVERED: 0
LLC PREFETCHES SAME FILL-ORIGIN LEVEL: 578 DIFFERENT FILL-ORIGIN LEVEL: 0
LLC AVERAGE MISS LATENCY: 137.83 cycles
LLC AVERAGE MISS LATENCY LOAD: 165.156 cycles
LLC AVERAGE MISS LATENCY PREFETCH: 169.093 cycles
LLC AVERAGE MSHR OCCUPANCY: 0.693585
LLC MSHR FULL: 0
LLC RQ	ACCESS:     467419	FORWARD:          0	MERGED:          0	TO_CACHE:     467419
LLC WQ	ACCESS:    1764572	FORWARD:          1	MERGED:          0	TO_CACHE:    1764572
LLC PQ	ACCESS:    1364003	FORWARD:          0	MERGED:        276	TO_CACHE:    1363726

LLC Dense regions hint to LLC: 0

RAW hits: 2914
Loads Generated: 70169131
Loads sent to L1D: 70166209
Stores Generated: 14041096
Stores sent to L1D: 14041098
Major fault: 0 Minor fault: 34498
Allocated PAGES: 34498
Total Load insts: 87707370
Total Non-spec loads: 6297446
Percentage of speculative loads: 92.8199

LeapFrogging counter: 0
Commit hits: 21688951 miss: 43469046
Commit hit %: 33.2867 miss %: 66.7133
Commits not translated: 0
Loads retired: 2893959
Stores retired: 14041098
Cache fills: 2893959
L1D response latency: 55.7838 cycles
Load retirement latency: 84.7743 cycles
OOO test counter: 0
Discarded buffer inserts: 21688951 hits: 250178 hit %: 1.15348
Filter prediction accuracy: 99.9933
------------------
Depth Distribution
------------------
depth 0: 41640668
depth 1: 886370
depth 2: 1306921
depth 3: 273087
depth 4: 267471
depth 5: 1804754
depth 6: 3406194
depth 7: 3922939
depth 8: 1225412
depth 9: 814420
depth 10: 1741630
depth 11: 6451088
depth 12: 8169802
depth 13: 5909864
depth 14: 4814056
depth 15: 2638724
depth 16: 1449150
depth 17: 664646
depth 18: 211516
depth 19: 70693
depth 20: 26284
depth 21: 10337
depth 22: 3779
depth 23: 1306
depth 24: 226
depth 25: 60
depth 26: 9
depth 27: 3
depth 28: 0
depth 29: 0
Total: 87711409
------------------
ST read accesses: 70141909
ST write accesses: 27222
PT read accesses: 2155570313
PT write accesses: 45998669
FILTER read accesses: 507181935
FILTER write accesses: 11764185
GHR read accesses: 28185582
GHR write accesses: 5289181
PERC read accesses: 15526562643
PERC write accesses: 24896148
GHR counter read accesses: 140338262
GHR counter write accesses: 76180437
GHR ip read accesses: 227218716
GHR ip write accesses: 280676524
ST tag read accesses: 20775545493
ST tag write accesses: 121313061

DRAM Statistics
 CHANNEL 0
 RQ ROW_BUFFER_HIT:     121159  ROW_BUFFER_MISS:    1687865
 DBUS_CONGESTED:       8097
 WQ ROW_BUFFER_HIT:     766138  ROW_BUFFER_MISS:     991805  FULL:          0

 AVG_CONGESTED_CYCLE: 6
 All warmup complete: 2
Channel 0 Bank busy for read cycles: 0
Channel 0 Bank busy for write cycles: 0
Channel 0
Rank 0
0banks busy for read cycles: 8062339
0banks busy for write cycles: 20216
1banks busy for read cycles: 115400397
1banks busy for write cycles: 2692080
2banks busy for read cycles: 42017755
2banks busy for write cycles: 1617866
3banks busy for read cycles: 9927404
3banks busy for write cycles: 1398011
4banks busy for read cycles: 2403701
4banks busy for write cycles: 1365514
5banks busy for read cycles: 1214869
5banks busy for write cycles: 1474273
6banks busy for read cycles: 522229
6banks busy for write cycles: 1801988
7banks busy for read cycles: 729099
7banks busy for write cycles: 4443776
8banks busy for read cycles: 817384
8banks busy for write cycles: 41906906

CPU 0 Branch Prediction Accuracy: 99.9751% MPKI: 0.00438 Average ROB Occupancy at Mispredict: 165.914
Branch types
NOT_BRANCH: 196487675 98.2438%
BRANCH_DIRECT_JUMP: 876 0.000438%
BRANCH_INDIRECT: 0 0%
BRANCH_CONDITIONAL: 3509616 1.75481%
BRANCH_DIRECT_CALL: 876 0.000438%
BRANCH_INDIRECT_CALL: 0 0%
BRANCH_RETURN: 876 0.000438%
BRANCH_OTHER: 0 0%

DRAM PAGES: 1048576
Allocated PAGES: 34498
