Initialize SIGNATURE TABLE
ST_SET: 1
ST_WAY: 256
ST_TAG_BIT: 16
ST_TAG_MASK: ffff

Initialize PATTERN TABLE
PT_SET: 512
PT_WAY: 4
SIG_DELTA_BIT: 7
C_SIG_BIT: 4
C_DELTA_BIT: 4

Initialize PREFETCH FILTER
FILTER_SET: 1024

Initialize PERCEPTRON
PERC_ENTRIES: 4096
PERC_FEATURES: 9

*** ChampSim Multicore Out-of-Order Simulator ***

Warmup Instructions: 50000000
Simulation Instructions: 200000000
Number of CPUs: 1
LLC sets: 2048
LLC ways: 16
L0D sets: 16
L0D ways: 2
ROB size: 352
LQ size: 128
SQ size: 72
Secure Berti: OFF
Berti: OFF
Berti Fill: OFF
On commit prefetching: ON
Hit-based filter: ON
Time-guarding: ON
Free-slotting: ON
Leap-frogging: ON
Train prefetcher on L0D bypass: OFF
No translation penalty for prefetchers: OFF
Prefetch to L0D only: OFF
Prefetch to L1D only: OFF
Clean evictions: ON
Commit loads: ON
Commit write: ON
Fill commit loads to L2C, LLC: ON
DRAM IO FREQUENCY: 6400
ROB SIZE: 352
Off-chip DRAM Size: 4096 MB Channels: 1 Width: 64-bit Data Rate: 6400 MT/s
CPU 0 runs /home/sumon/secure_berti/GhostMinion/../../traces/spec/654.roms_s-523B.champsimtrace.xz
.xz
BTB has LRU replacement policy
ITLB has LRU replacement policy
DTLB has LRU replacement policy
STLB has LRU replacement policy
L1I has LRU replacement policy
L0D has LRU replacement policy
L1D has LRU replacement policy
PERC_ENTRIES: 4096
L2C has LRU replacement policy
LLC has LRU replacement policy
Heartbeat CPU 0 instructions: 10000002 cycles: 3276060 heartbeat IPC: 3.05245 cumulative IPC: 3.05245 (Simulation time: 0 hr 0 min 29 sec) 
Heartbeat CPU 0 instructions: 20000003 cycles: 6458672 heartbeat IPC: 3.14207 cumulative IPC: 3.09661 (Simulation time: 0 hr 0 min 55 sec) 
Heartbeat CPU 0 instructions: 30000003 cycles: 10297648 heartbeat IPC: 2.60486 cumulative IPC: 2.91329 (Simulation time: 0 hr 1 min 34 sec) 
Heartbeat CPU 0 instructions: 40000001 cycles: 13726295 heartbeat IPC: 2.9166 cumulative IPC: 2.91411 (Simulation time: 0 hr 2 min 5 sec) 
Heartbeat CPU 0 instructions: 50000001 cycles: 17144713 heartbeat IPC: 2.92533 cumulative IPC: 2.91635 (Simulation time: 0 hr 2 min 45 sec) 

Warmup complete CPU 0 instructions: 50000001 cycles: 17144713 (Simulation time: 0 hr 2 min 45 sec) 

Heartbeat CPU 0 instructions: 60000003 cycles: 28883533 heartbeat IPC: 0.851875 cumulative IPC: 0.851875 (Simulation time: 0 hr 3 min 34 sec) 
Heartbeat CPU 0 instructions: 70000000 cycles: 40946743 heartbeat IPC: 0.828966 cumulative IPC: 0.840264 (Simulation time: 0 hr 4 min 23 sec) 
Heartbeat CPU 0 instructions: 80000000 cycles: 50623717 heartbeat IPC: 1.03338 cumulative IPC: 0.896084 (Simulation time: 0 hr 5 min 8 sec) 
Heartbeat CPU 0 instructions: 90000003 cycles: 62212023 heartbeat IPC: 0.862939 cumulative IPC: 0.887561 (Simulation time: 0 hr 5 min 44 sec) 
Heartbeat CPU 0 instructions: 100000001 cycles: 73629814 heartbeat IPC: 0.875826 cumulative IPC: 0.885189 (Simulation time: 0 hr 6 min 14 sec) 
Heartbeat CPU 0 instructions: 110000000 cycles: 87767112 heartbeat IPC: 0.707349 cumulative IPC: 0.849589 (Simulation time: 0 hr 7 min 4 sec) 
Heartbeat CPU 0 instructions: 120000001 cycles: 102718807 heartbeat IPC: 0.668821 cumulative IPC: 0.818005 (Simulation time: 0 hr 7 min 53 sec) 
Heartbeat CPU 0 instructions: 130000002 cycles: 114285420 heartbeat IPC: 0.864557 cumulative IPC: 0.823548 (Simulation time: 0 hr 8 min 41 sec) 
Heartbeat CPU 0 instructions: 140000001 cycles: 126840531 heartbeat IPC: 0.796488 cumulative IPC: 0.820451 (Simulation time: 0 hr 9 min 32 sec) 
Heartbeat CPU 0 instructions: 150000000 cycles: 139188926 heartbeat IPC: 0.809822 cumulative IPC: 0.819375 (Simulation time: 0 hr 10 min 23 sec) 
Heartbeat CPU 0 instructions: 160000002 cycles: 148593382 heartbeat IPC: 1.06333 cumulative IPC: 0.836829 (Simulation time: 0 hr 11 min 8 sec) 
Heartbeat CPU 0 instructions: 170000001 cycles: 160124780 heartbeat IPC: 0.867197 cumulative IPC: 0.839278 (Simulation time: 0 hr 11 min 46 sec) 
Heartbeat CPU 0 instructions: 180000001 cycles: 171349362 heartbeat IPC: 0.890902 cumulative IPC: 0.843036 (Simulation time: 0 hr 12 min 16 sec) 
Heartbeat CPU 0 instructions: 190000000 cycles: 185764945 heartbeat IPC: 0.693694 cumulative IPC: 0.830268 (Simulation time: 0 hr 13 min 8 sec) 
Heartbeat CPU 0 instructions: 200000000 cycles: 200652772 heartbeat IPC: 0.67169 cumulative IPC: 0.817403 (Simulation time: 0 hr 13 min 56 sec) 
Heartbeat CPU 0 instructions: 210000003 cycles: 212377750 heartbeat IPC: 0.85288 cumulative IPC: 0.819533 (Simulation time: 0 hr 14 min 43 sec) 
Heartbeat CPU 0 instructions: 220000000 cycles: 224669375 heartbeat IPC: 0.813562 cumulative IPC: 0.81918 (Simulation time: 0 hr 15 min 31 sec) 
Heartbeat CPU 0 instructions: 230000000 cycles: 236550782 heartbeat IPC: 0.841651 cumulative IPC: 0.820397 (Simulation time: 0 hr 16 min 19 sec) 
Heartbeat CPU 0 instructions: 240000000 cycles: 245929112 heartbeat IPC: 1.06629 cumulative IPC: 0.830476 (Simulation time: 0 hr 17 min 2 sec) 
Heartbeat CPU 0 instructions: 250000001 cycles: 257488458 heartbeat IPC: 0.865101 cumulative IPC: 0.832141 (Simulation time: 0 hr 17 min 37 sec) 
Finished CPU 0 instructions: 200000000 cycles: 240343745 cumulative IPC: 0.832141 (Simulation time: 0 hr 17 min 37 sec) 
 Instruction ID: 250000054

ChampSim completed all CPUs

Region of Interest Statistics

CPU 0 cumulative IPC: 0.832141 instructions: 200000000 cycles: 240343745
ITLB SPEC fills:          0  NON-SPEC fills:          0
ITLB Test counter :          0
ITLB Leapfrog:          0
ITLB MSHR merge:          0
ITLB TOTAL     ACCESS:   30510605  HIT:   30510605  MISS:          0  HIT %:        100  MISS %:          0   MPKI: 0
ITLB LOAD TRANSLATION NON_SPEC    ACCESS:   30510605  HIT:   30510605  MISS:          0  HIT %:        100  MISS %:          0   MPKI: 0
ITLB PREFETCH  REQUESTED:          0  ISSUED:          0  USEFUL:          0  USELESS:          0
ITLB USEFUL LOAD PREFETCHES:          0 PREFETCH ISSUED TO LOWER LEVEL:          0  ACCURACY: -nan
ITLB TIMELY PREFETCHES:          0 LATE PREFETCHES: 0 DROPPED PREFETCHES: 0
ITLB COMMIT LATE PREFETCHES: 0 MISSED OPPORTUNITY: 0 LATE IN PQ: 0 UNCOVERED: 0
ITLB COMMIT LATE MSHR PREFETCHES: 0
ITLB MPKI TOTAL: 0 MSHR LATE: 0 PQ LATE: 0 COMMIT LATE: 0 MISSED OPPORTUNITY: 0 UNCOVERED: 0
ITLB PREFETCHES SAME FILL-ORIGIN LEVEL: 0 DIFFERENT FILL-ORIGIN LEVEL: 0
ITLB AVERAGE MISS LATENCY: -nan cycles
ITLB AVERAGE MISS LATENCY LOAD: -nan cycles
ITLB AVERAGE MISS LATENCY PREFETCH: -nan cycles
ITLB AVERAGE MSHR OCCUPANCY: 0
ITLB MSHR FULL: 0
ITLB RQ	ACCESS:   36236775	FORWARD:          0	MERGED:    5726170	TO_CACHE:   30510605

DTLB SPEC fills:          0  NON-SPEC fills:          0
DTLB Test counter :          0
DTLB Leapfrog:          0
DTLB MSHR merge:          0
DTLB TOTAL     ACCESS:   56761176  HIT:   56660556  MISS:     100620  HIT %:    99.8227  MISS %:   0.177269   MPKI: 0.5031
DTLB LOAD TRANSLATION NON_SPEC    ACCESS:   56761176  HIT:   56660556  MISS:     100620  HIT %:    99.8227  MISS %:   0.177269   MPKI: 0.5031
DTLB PREFETCH  REQUESTED:          0  ISSUED:          0  USEFUL:          0  USELESS:          0
DTLB USEFUL LOAD PREFETCHES:          0 PREFETCH ISSUED TO LOWER LEVEL:          0  ACCURACY: -nan
DTLB TIMELY PREFETCHES:          0 LATE PREFETCHES: 0 DROPPED PREFETCHES: 0
DTLB COMMIT LATE PREFETCHES: 0 MISSED OPPORTUNITY: 0 LATE IN PQ: 0 UNCOVERED: 0
DTLB COMMIT LATE MSHR PREFETCHES: 0
DTLB MPKI TOTAL: 0 MSHR LATE: 0 PQ LATE: 0 COMMIT LATE: 0 MISSED OPPORTUNITY: 0 UNCOVERED: 0
DTLB PREFETCHES SAME FILL-ORIGIN LEVEL: 0 DIFFERENT FILL-ORIGIN LEVEL: 0
DTLB AVERAGE MISS LATENCY: 197.911 cycles
DTLB AVERAGE MISS LATENCY LOAD: -nan cycles
DTLB AVERAGE MISS LATENCY PREFETCH: -nan cycles
DTLB AVERAGE MSHR OCCUPANCY: 0.0334101
DTLB MSHR FULL: 0
DTLB RQ	ACCESS:   65300443	FORWARD:          0	MERGED:    8395635	TO_CACHE:   56904808

STLB SPEC fills:          0  NON-SPEC fills:          0
STLB Test counter :          0
STLB Leapfrog:          0
STLB MSHR merge:          0
STLB TOTAL     ACCESS:     100620  HIT:        787  MISS:      99833  HIT %:   0.782151  MISS %:    99.2178   MPKI: 0.499165
STLB LOAD TRANSLATION NON_SPEC    ACCESS:     100620  HIT:        787  MISS:      99833  HIT %:   0.782151  MISS %:    99.2178   MPKI: 0.499165
STLB PREFETCH  REQUESTED:          0  ISSUED:          0  USEFUL:          0  USELESS:          0
STLB USEFUL LOAD PREFETCHES:          0 PREFETCH ISSUED TO LOWER LEVEL:          0  ACCURACY: -nan
STLB TIMELY PREFETCHES:          0 LATE PREFETCHES: 0 DROPPED PREFETCHES: 0
STLB COMMIT LATE PREFETCHES: 0 MISSED OPPORTUNITY: 0 LATE IN PQ: 0 UNCOVERED: 0
STLB COMMIT LATE MSHR PREFETCHES: 0
STLB MPKI TOTAL: 0 MSHR LATE: 0 PQ LATE: 0 COMMIT LATE: 0 MISSED OPPORTUNITY: 0 UNCOVERED: 0
STLB PREFETCHES SAME FILL-ORIGIN LEVEL: 0 DIFFERENT FILL-ORIGIN LEVEL: 0
STLB AVERAGE MISS LATENCY: 190.294 cycles
STLB AVERAGE MISS LATENCY LOAD: -nan cycles
STLB AVERAGE MISS LATENCY PREFETCH: -nan cycles
STLB AVERAGE MSHR OCCUPANCY: 0.188501
STLB MSHR FULL: 0
STLB RQ	ACCESS:     100620	FORWARD:          0	MERGED:          0	TO_CACHE:     100620

STLB Hit, L1D data hit: 0
STLB Hit, L2C data hit: 0
STLB Hit, LLC data hit: 0
STLB Hit, LLC data miss: 0
STLB STLB hints to L2: 0
L0D SPEC fills:   27930232  NON-SPEC fills:          0
L0D TimeGuard Request with older TS:     710561 Restricted eviction:     176733 read:     929442
L0D Test counter :          0
L0D Leapfrog:          0
L0D MSHR merge:    5054463
L0D TOTAL     ACCESS:   48842223  HIT:   15778592  MISS:   33063631  HIT %:    32.3052  MISS %:    67.6948   MPKI: 165.318
L0D LOAD      TOTAL       ACCESS:   48842223  HIT:   15778592  MISS:   33063631  HIT %:    32.3052  MISS %:    67.6948   MPKI: 165.318
L0D LOAD      NON_SPEC    ACCESS:    5337865  HIT:     381177  MISS:    4956688  HIT %:      7.141  MISS %:     92.859   MPKI: 24.7834
L0D LOAD      SPEC        ACCESS:   43504358  HIT:   15397415  MISS:   28106943  HIT %:    35.3928  MISS %:    64.6072   MPKI: 140.535
L0D PREFETCH  REQUESTED:          0  ISSUED:          0  USEFUL:          0  USELESS:          0
L0D USEFUL LOAD PREFETCHES:          0 PREFETCH ISSUED TO LOWER LEVEL:          0  ACCURACY: -nan
L0D TIMELY PREFETCHES:          0 LATE PREFETCHES: 0 DROPPED PREFETCHES: 0
L0D COMMIT LATE PREFETCHES: 0 MISSED OPPORTUNITY: 0 LATE IN PQ: 0 UNCOVERED: 0
L0D COMMIT LATE MSHR PREFETCHES: 0
L0D MPKI TOTAL: 190.59 MSHR LATE: 0 PQ LATE: 0 COMMIT LATE: 0 MISSED OPPORTUNITY: 0 UNCOVERED: 0
L0D PREFETCHES SAME FILL-ORIGIN LEVEL: 0 DIFFERENT FILL-ORIGIN LEVEL: 0
L0D AVERAGE MISS LATENCY: 9.48151 cycles
L0D AVERAGE MISS LATENCY LOAD: 9.48151 cycles
L0D AVERAGE MISS LATENCY PREFETCH: -nan cycles
L0D AVERAGE MSHR OCCUPANCY: 1.49963
L0D MSHR FULL: 0.000145692
L0D RQ	ACCESS:   74181977	FORWARD:          0	MERGED:   20285300	TO_CACHE:   53896677
L0D WQ	ACCESS:   11403766	FORWARD:          0	MERGED:          0	TO_CACHE:   11403766

L1D SPEC fills:          0  NON-SPEC fills:     313300
L1D Test counter :          0
L1D Leapfrog:          0
L1D MSHR merge:       8500
L1D TOTAL     ACCESS:   43593884  HIT:   35850897  MISS:    7742987  HIT %:    82.2384  MISS %:    17.7616   MPKI: 38.7149
L1D LOAD      TOTAL       ACCESS:   33055131  HIT:   29463942  MISS:    3591189  HIT %:    89.1358  MISS %:    10.8642   MPKI: 17.9559
L1D LOAD      NON_SPEC    ACCESS:    4956318  HIT:    4643018  MISS:     313300  HIT %:    93.6788  MISS %:    6.32122   MPKI: 1.5665
L1D LOAD      SPEC        ACCESS:   28098813  HIT:   24820924  MISS:    3277889  HIT %:    88.3344  MISS %:    11.6656   MPKI: 16.3894
L1D RFO       NON_SPEC    ACCESS:    3772587  HIT:    2563637  MISS:    1208950  HIT %:    67.9544  MISS %:    32.0456   MPKI: 6.04475
L1D COMMIT LOAD NON_SPEC    ACCESS:    2800013  HIT:    2774359  MISS:      25654  HIT %:    99.0838  MISS %:    0.91621   MPKI: 0.12827
L1D COMMIT WRITE NON_SPEC    ACCESS:    3966153  HIT:    1048959  MISS:    2917194  HIT %:    26.4478  MISS %:    73.5522   MPKI: 14.586
L1D PREFETCH  REQUESTED:          0  ISSUED:          0  USEFUL:          0  USELESS:          0
L1D USEFUL LOAD PREFETCHES:          0 PREFETCH ISSUED TO LOWER LEVEL:          0  ACCURACY: -nan
L1D TIMELY PREFETCHES:          0 LATE PREFETCHES: 0 DROPPED PREFETCHES: 0
L1D COMMIT LATE PREFETCHES: 0 MISSED OPPORTUNITY: 0 LATE IN PQ: 0 UNCOVERED: 0
L1D COMMIT LATE MSHR PREFETCHES: 0
L1D MPKI TOTAL: 17.9984 MSHR LATE: 0 PQ LATE: 0 COMMIT LATE: 0 MISSED OPPORTUNITY: 0 UNCOVERED: 0
L1D PREFETCHES SAME FILL-ORIGIN LEVEL: 0 DIFFERENT FILL-ORIGIN LEVEL: 0
L1D AVERAGE MISS LATENCY: 78.2362 cycles
L1D AVERAGE MISS LATENCY LOAD: 39.769 cycles
L1D AVERAGE MISS LATENCY PREFETCH: -nan cycles
L1D AVERAGE MSHR OCCUPANCY: 2.30372
L1D MSHR FULL: 0.000198471
L1D RQ	ACCESS:   38507904	FORWARD:          0	MERGED:    2512637	TO_CACHE:   35882529
L1D WQ	ACCESS:   15398353	FORWARD:     112738	MERGED:     154107	TO_CACHE:   15244246

L1D UNIQUE REGIONS ACCESSED: 0
L1D REGIONS CONFLICTS: 0
L1D Cross Page Prefetch Requests: 0
L1D Same Page Prefetch Requests: 0
L1D ROI Sum of L1D PQ occupancy: 0
L1D PREFETCHES PUSHED FROM L2C: 0
L1I SPEC fills:          0  NON-SPEC fills:          0
L1I Test counter :          0
L1I Leapfrog:          0
L1I MSHR merge:         14
L1I TOTAL     ACCESS:   36236762  HIT:   36236730  MISS:         32  HIT %:    99.9999  MISS %: 8.83081e-05   MPKI: 0.00016
L1I LOAD      TOTAL       ACCESS:   36236762  HIT:   36236730  MISS:         32  HIT %:    99.9999  MISS %: 8.83081e-05   MPKI: 0.00016
L1I LOAD      NON_SPEC    ACCESS:   36236762  HIT:   36236730  MISS:         32  HIT %:    99.9999  MISS %: 8.83081e-05   MPKI: 0.00016
L1I PREFETCH  REQUESTED:          0  ISSUED:          0  USEFUL:          0  USELESS:          0
L1I USEFUL LOAD PREFETCHES:          0 PREFETCH ISSUED TO LOWER LEVEL:          0  ACCURACY: -nan
L1I TIMELY PREFETCHES:          0 LATE PREFETCHES: 0 DROPPED PREFETCHES: 0
L1I COMMIT LATE PREFETCHES: 0 MISSED OPPORTUNITY: 0 LATE IN PQ: 0 UNCOVERED: 0
L1I COMMIT LATE MSHR PREFETCHES: 0
L1I MPKI TOTAL: 0.00023 MSHR LATE: 0 PQ LATE: 0 COMMIT LATE: 0 MISSED OPPORTUNITY: 0 UNCOVERED: 0
L1I PREFETCHES SAME FILL-ORIGIN LEVEL: 0 DIFFERENT FILL-ORIGIN LEVEL: 0
L1I AVERAGE MISS LATENCY: 399.312 cycles
L1I AVERAGE MISS LATENCY LOAD: 399.312 cycles
L1I AVERAGE MISS LATENCY PREFETCH: -nan cycles
L1I AVERAGE MSHR OCCUPANCY: 1.10385e-06
L1I MSHR FULL: 0
L1I RQ	ACCESS:   53560140	FORWARD:          0	MERGED:   17323365	TO_CACHE:   36236775

BTB SPEC fills:          0  NON-SPEC fills:          0
BTB Test counter :          0
BTB Leapfrog:          0
BTB MSHR merge:          0
BTB TOTAL     ACCESS:   12959621  HIT:   12959575  MISS:         46  HIT %:    99.9996  MISS %: 0.000354949   MPKI: 0.00023
BTB BRANCH_DIRECT_JUMP	ACCESS:    1451293  HIT:    1451288  MISS:          5
BTB BRANCH_INDIRECT	ACCESS:          0  HIT:          0  MISS:          0
BTB BRANCH_CONDITIONAL	ACCESS:   11508328  HIT:   11508287  MISS:         41
BTB BRANCH_DIRECT_CALL	ACCESS:          0  HIT:          0  MISS:          0
BTB BRANCH_INDIRECT_CALL	ACCESS:          0  HIT:          0  MISS:          0
BTB BRANCH_RETURN	ACCESS:          0  HIT:          0  MISS:          0
BTB BRANCH_OTHER ACCESS:          0  HIT:          0  MISS:          0

L2C SPEC fills:          0  NON-SPEC fills:      37978
L2C Test counter :          0
L2C Leapfrog:          0
L2C MSHR merge:     363243
L2C TOTAL     ACCESS:   14449663  HIT:    9298744  MISS:    5150919  HIT %:    64.3527  MISS %:    35.6473   MPKI: 25.7546
L2C LOAD      TOTAL       ACCESS:    3591185  HIT:    3028773  MISS:     562412  HIT %:    84.3391  MISS %:    15.6609   MPKI: 2.81206
L2C LOAD      NON_SPEC    ACCESS:     313332  HIT:     275322  MISS:      38010  HIT %:    87.8691  MISS %:    12.1309   MPKI: 0.19005
L2C LOAD      SPEC        ACCESS:    3277853  HIT:    2753451  MISS:     524402  HIT %:    84.0017  MISS %:    15.9983   MPKI: 2.62201
L2C RFO       NON_SPEC    ACCESS:    1208950  HIT:        743  MISS:    1208207  HIT %:  0.0614583  MISS %:    99.9385   MPKI: 6.04103
L2C PREFETCH  NON_SPEC    ACCESS:    6603177  HIT:    3582871  MISS:    3020306  HIT %:    54.2598  MISS %:    45.7402   MPKI: 15.1015
L2C WRITEBACK NON_SPEC    ACCESS:    1254659  HIT:    1254659  MISS:          0  HIT %:        100  MISS %:          0   MPKI: 0
L2C CLEAN_EVICTION NON_SPEC    ACCESS:    1266938  HIT:     928895  MISS:     338043  HIT %:    73.3181  MISS %:    26.6819   MPKI: 1.69022
L2C COMMIT LOAD NON_SPEC    ACCESS:      25654  HIT:      24570  MISS:       1084  HIT %:    95.7745  MISS %:    4.22546   MPKI: 0.00542
L2C LOAD TRANSLATION NON_SPEC    ACCESS:     499100  HIT:     478233  MISS:      20867  HIT %:    95.8191  MISS %:    4.18093   MPKI: 0.104335
L2C PREFETCH  REQUESTED:    8636752  ISSUED:    8636491  USEFUL:    2677292  USELESS:     342977
L2C USEFUL LOAD PREFETCHES:    2677292 PREFETCH ISSUED TO LOWER LEVEL:    3413169  ACCURACY: 78.4401
L2C TIMELY PREFETCHES:    2677292 LATE PREFETCHES: 363323 DROPPED PREFETCHES: 0
L2C COMMIT LATE PREFETCHES: 0 MISSED OPPORTUNITY: 0 LATE IN PQ: 0 UNCOVERED: 0
L2C COMMIT LATE MSHR PREFETCHES: 0
L2C MPKI TOTAL: 2.81206 MSHR LATE: 1.81662 PQ LATE: 0 COMMIT LATE: 0 MISSED OPPORTUNITY: 0 UNCOVERED: 0
L2C PREFETCHES SAME FILL-ORIGIN LEVEL: 3383633 DIFFERENT FILL-ORIGIN LEVEL: 29536
L2C AVERAGE MISS LATENCY: 301.109 cycles
L2C AVERAGE MISS LATENCY LOAD: 187.371 cycles
L2C AVERAGE MISS LATENCY PREFETCH: 329.245 cycles
L2C AVERAGE MSHR OCCUPANCY: 7.90446
L2C MSHR FULL: 0.0192583
L2C RQ	ACCESS:    5324925	FORWARD:          0	MERGED:          0	TO_CACHE:    5324889
L2C WQ	ACCESS:    2521598	FORWARD:         53	MERGED:          1	TO_CACHE:    2521597
L2C PQ	ACCESS:    8636491	FORWARD:          0	MERGED:    1182186	TO_CACHE:    7454288

L2C Instructions Evicting Data 31
L2C Translations Evicting Data 20794
L2C Data Evicting Data 4248266
L2C Instructions Evicting Instructions 0
L2C Translations Evicting Instructions 0
L2C Data Evicting Instructions 30
L2C Instructions Evicting Translations 1
L2C Translations Evicting Translations 73
L2C Data Evicting Translations 19279
L2C Dense regions hint from L2: 0
PSCL5 SPEC fills:          0  NON-SPEC fills:          0
PSCL5 Test counter :          0
PSCL5 Leapfrog:          0
PSCL5 MSHR merge:          0
PSCL5 TOTAL     ACCESS:          0  HIT:          0  MISS:          0  HIT %:       -nan  MISS %:       -nan   MPKI: 0
PSCL5 PREFETCH  REQUESTED:          0  ISSUED:          0  USEFUL:          0  USELESS:          0
PSCL5 USEFUL LOAD PREFETCHES:          0 PREFETCH ISSUED TO LOWER LEVEL:          0  ACCURACY: -nan
PSCL5 TIMELY PREFETCHES:          0 LATE PREFETCHES: 0 DROPPED PREFETCHES: 0
PSCL5 COMMIT LATE PREFETCHES: 0 MISSED OPPORTUNITY: 0 LATE IN PQ: 0 UNCOVERED: 0
PSCL5 COMMIT LATE MSHR PREFETCHES: 0
PSCL5 MPKI TOTAL: 0 MSHR LATE: 0 PQ LATE: 0 COMMIT LATE: 0 MISSED OPPORTUNITY: 0 UNCOVERED: 0
PSCL5 PREFETCHES SAME FILL-ORIGIN LEVEL: 0 DIFFERENT FILL-ORIGIN LEVEL: 0

PSCL4 SPEC fills:          0  NON-SPEC fills:          0
PSCL4 Test counter :          0
PSCL4 Leapfrog:          0
PSCL4 MSHR merge:          0
PSCL4 TOTAL     ACCESS:          0  HIT:          0  MISS:          0  HIT %:       -nan  MISS %:       -nan   MPKI: 0
PSCL4 PREFETCH  REQUESTED:          0  ISSUED:          0  USEFUL:          0  USELESS:          0
PSCL4 USEFUL LOAD PREFETCHES:          0 PREFETCH ISSUED TO LOWER LEVEL:          0  ACCURACY: -nan
PSCL4 TIMELY PREFETCHES:          0 LATE PREFETCHES: 0 DROPPED PREFETCHES: 0
PSCL4 COMMIT LATE PREFETCHES: 0 MISSED OPPORTUNITY: 0 LATE IN PQ: 0 UNCOVERED: 0
PSCL4 COMMIT LATE MSHR PREFETCHES: 0
PSCL4 MPKI TOTAL: 0 MSHR LATE: 0 PQ LATE: 0 COMMIT LATE: 0 MISSED OPPORTUNITY: 0 UNCOVERED: 0
PSCL4 PREFETCHES SAME FILL-ORIGIN LEVEL: 0 DIFFERENT FILL-ORIGIN LEVEL: 0

PSCL3 SPEC fills:          0  NON-SPEC fills:          0
PSCL3 Test counter :          0
PSCL3 Leapfrog:          0
PSCL3 MSHR merge:          0
PSCL3 TOTAL     ACCESS:          0  HIT:          0  MISS:          0  HIT %:       -nan  MISS %:       -nan   MPKI: 0
PSCL3 PREFETCH  REQUESTED:          0  ISSUED:          0  USEFUL:          0  USELESS:          0
PSCL3 USEFUL LOAD PREFETCHES:          0 PREFETCH ISSUED TO LOWER LEVEL:          0  ACCURACY: -nan
PSCL3 TIMELY PREFETCHES:          0 LATE PREFETCHES: 0 DROPPED PREFETCHES: 0
PSCL3 COMMIT LATE PREFETCHES: 0 MISSED OPPORTUNITY: 0 LATE IN PQ: 0 UNCOVERED: 0
PSCL3 COMMIT LATE MSHR PREFETCHES: 0
PSCL3 MPKI TOTAL: 0 MSHR LATE: 0 PQ LATE: 0 COMMIT LATE: 0 MISSED OPPORTUNITY: 0 UNCOVERED: 0
PSCL3 PREFETCHES SAME FILL-ORIGIN LEVEL: 0 DIFFERENT FILL-ORIGIN LEVEL: 0

PSCL2 SPEC fills:          0  NON-SPEC fills:          0
PSCL2 Test counter :          0
PSCL2 Leapfrog:          0
PSCL2 MSHR merge:          0
PSCL2 TOTAL     ACCESS:          0  HIT:          0  MISS:          0  HIT %:       -nan  MISS %:       -nan   MPKI: 0
PSCL2 PREFETCH  REQUESTED:          0  ISSUED:          0  USEFUL:          0  USELESS:          0
PSCL2 USEFUL LOAD PREFETCHES:          0 PREFETCH ISSUED TO LOWER LEVEL:          0  ACCURACY: -nan
PSCL2 TIMELY PREFETCHES:          0 LATE PREFETCHES: 0 DROPPED PREFETCHES: 0
PSCL2 COMMIT LATE PREFETCHES: 0 MISSED OPPORTUNITY: 0 LATE IN PQ: 0 UNCOVERED: 0
PSCL2 COMMIT LATE MSHR PREFETCHES: 0
PSCL2 MPKI TOTAL: 0 MSHR LATE: 0 PQ LATE: 0 COMMIT LATE: 0 MISSED OPPORTUNITY: 0 UNCOVERED: 0
PSCL2 PREFETCHES SAME FILL-ORIGIN LEVEL: 0 DIFFERENT FILL-ORIGIN LEVEL: 0

LLC SPEC fills:          0  NON-SPEC fills:      21707
LLC Test counter :          0
LLC Leapfrog:          0
LLC MSHR merge:          0
LLC TOTAL     ACCESS:    7345371  HIT:    2583362  MISS:    4762009  HIT %:    35.1699  MISS %:    64.8301   MPKI: 23.81
LLC LOAD      TOTAL       ACCESS:     199169  HIT:      43901  MISS:     155268  HIT %:    22.0421  MISS %:    77.9579   MPKI: 0.77634
LLC LOAD      NON_SPEC    ACCESS:      22146  HIT:        407  MISS:      21739  HIT %:     1.8378  MISS %:    98.1622   MPKI: 0.108695
LLC LOAD      SPEC        ACCESS:     177023  HIT:      43494  MISS:     133529  HIT %:    24.5697  MISS %:    75.4303   MPKI: 0.667645
LLC RFO       NON_SPEC    ACCESS:    1208206  HIT:         30  MISS:    1208176  HIT %: 0.00248302  MISS %:    99.9975   MPKI: 6.04088
LLC PREFETCH  NON_SPEC    ACCESS:    3395376  HIT:      64369  MISS:    3331007  HIT %:    1.89578  MISS %:    98.1042   MPKI: 16.655
LLC WRITEBACK NON_SPEC    ACCESS:    1253814  HIT:    1253803  MISS:         11  HIT %:    99.9991  MISS %: 0.000877323   MPKI: 5.5e-05
LLC CLEAN_EVICTION NON_SPEC    ACCESS:    1266934  HIT:    1220785  MISS:      46149  HIT %:    96.3574  MISS %:    3.64257   MPKI: 0.230745
LLC COMMIT LOAD NON_SPEC    ACCESS:       1005  HIT:        474  MISS:        531  HIT %:    47.1642  MISS %:    52.8358   MPKI: 0.002655
LLC LOAD TRANSLATION NON_SPEC    ACCESS:      20867  HIT:          0  MISS:      20867  HIT %:          0  MISS %:        100   MPKI: 0.104335
LLC PREFETCH  REQUESTED:          0  ISSUED:          0  USEFUL:      43723  USELESS:    3287978
LLC USEFUL LOAD PREFETCHES:      43723 PREFETCH ISSUED TO LOWER LEVEL:    3331010  ACCURACY: 1.3126
LLC TIMELY PREFETCHES:      43723 LATE PREFETCHES: 0 DROPPED PREFETCHES: 0
LLC COMMIT LATE PREFETCHES: 0 MISSED OPPORTUNITY: 0 LATE IN PQ: 0 UNCOVERED: 0
LLC COMMIT LATE MSHR PREFETCHES: 0
LLC MPKI TOTAL: 0.77634 MSHR LATE: 0 PQ LATE: 0 COMMIT LATE: 0 MISSED OPPORTUNITY: 0 UNCOVERED: 0
LLC PREFETCHES SAME FILL-ORIGIN LEVEL: 6624 DIFFERENT FILL-ORIGIN LEVEL: 0
LLC AVERAGE MISS LATENCY: 317.181 cycles
LLC AVERAGE MISS LATENCY LOAD: 236.742 cycles
LLC AVERAGE MISS LATENCY PREFETCH: 318.152 cycles
LLC AVERAGE MSHR OCCUPANCY: 6.53921
LLC MSHR FULL: 0
LLC RQ	ACCESS:    1429247	FORWARD:          0	MERGED:          0	TO_CACHE:    1429247
LLC WQ	ACCESS:    2520748	FORWARD:          0	MERGED:          0	TO_CACHE:    2520748
LLC PQ	ACCESS:    3413169	FORWARD:          0	MERGED:       8003	TO_CACHE:    3405166

LLC Dense regions hint to LLC: 0

RAW hits: 23297
Loads Generated: 74205278
Loads sent to L1D: 74181977
Stores Generated: 11403765
Stores sent to L1D: 11403766
Major fault: 0 Minor fault: 35137
Allocated PAGES: 35137
Total Load insts: 91266685
Total Non-spec loads: 6628695
Percentage of speculative loads: 92.737

LeapFrogging counter: 16299
Commit hits: 27462015 miss: 41172612
Commit hit %: 40.0119 miss %: 59.9881
Commits not translated: 0
Loads retired: 3591189
Stores retired: 11403766
Cache fills: 3591189
L1D response latency: 39.769 cycles
Load retirement latency: 87.1848 cycles
OOO test counter: 0
Discarded buffer inserts: 27462015 hits: 129208 hit %: 0.470497
Filter prediction accuracy: 99.6288
------------------
Depth Distribution
------------------
depth 0: 26042733
depth 1: 460498
depth 2: 301916
depth 3: 4176278
depth 4: 19676759
depth 5: 21133883
depth 6: 5113302
depth 7: 4885224
depth 8: 4209904
depth 9: 2704052
depth 10: 1403016
depth 11: 891344
depth 12: 227482
depth 13: 49078
depth 14: 25129
depth 15: 546
depth 16: 520
depth 17: 294
depth 18: 38
depth 19: 7
depth 20: 3
depth 21: 2
depth 22: 1
depth 23: 1
depth 24: 2
depth 25: 1
depth 26: 1
depth 27: 2
depth 28: 0
depth 29: 0
Total: 91302016
------------------
ST read accesses: 74124400
ST write accesses: 80922
PT read accesses: 1916838264
PT write accesses: 38185997
FILTER read accesses: 450251771
FILTER write accesses: 22828801
GHR read accesses: 44639768
GHR write accesses: 8813739
PERC read accesses: 14032184985
PERC write accesses: 43875954
GHR counter read accesses: 148410644
GHR counter write accesses: 86684164
GHR ip read accesses: 250992804
GHR ip write accesses: 296821288
ST tag read accesses: 25354345314
ST tag write accesses: 278964698

DRAM Statistics
 CHANNEL 0
 RQ ROW_BUFFER_HIT:     392550  ROW_BUFFER_MISS:    4323299
 DBUS_CONGESTED:        137
 WQ ROW_BUFFER_HIT:     437196  ROW_BUFFER_MISS:    2089806  FULL:          0

 AVG_CONGESTED_CYCLE: 5
 All warmup complete: 2
Channel 0 Bank busy for read cycles: 0
Channel 0 Bank busy for write cycles: 0
Channel 0
Rank 0
0banks busy for read cycles: 222851
0banks busy for write cycles: 48
1banks busy for read cycles: 20762584
1banks busy for write cycles: 407735
2banks busy for read cycles: 28374572
2banks busy for write cycles: 412438
3banks busy for read cycles: 26925526
3banks busy for write cycles: 416855
4banks busy for read cycles: 25390293
4banks busy for write cycles: 420899
5banks busy for read cycles: 24801998
5banks busy for write cycles: 437723
6banks busy for read cycles: 20146780
6banks busy for write cycles: 563149
7banks busy for read cycles: 15534326
7banks busy for write cycles: 4434248
8banks busy for read cycles: 12874226
8banks busy for write cycles: 58217495

CPU 0 Branch Prediction Accuracy: 99.8522% MPKI: 0.096965 Average ROB Occupancy at Mispredict: 152.289
Branch types
NOT_BRANCH: 186881140 93.4406%
BRANCH_DIRECT_JUMP: 1451293 0.725646%
BRANCH_INDIRECT: 0 0%
BRANCH_CONDITIONAL: 11667242 5.83362%
BRANCH_DIRECT_CALL: 0 0%
BRANCH_INDIRECT_CALL: 0 0%
BRANCH_RETURN: 0 0%
BRANCH_OTHER: 0 0%

DRAM PAGES: 1048576
Allocated PAGES: 35137
