
*** ChampSim Multicore Out-of-Order Simulator ***

Warmup Instructions: 50000000
Simulation Instructions: 200000000
Number of CPUs: 1
LLC sets: 2048
LLC ways: 16
L0D sets: 16
L0D ways: 2
ROB size: 352
LQ size: 128
SQ size: 72
Secure Berti: OFF
Berti: OFF
Berti Fill: OFF
On commit prefetching: OFF
Hit-based filter: OFF
Time-guarding: ON
Free-slotting: ON
Leap-frogging: ON
Train prefetcher on L0D bypass: OFF
No translation penalty for prefetchers: OFF
Prefetch to L0D only: OFF
Prefetch to L1D only: OFF
Clean evictions: ON
Commit loads: ON
Commit write: ON
Fill commit loads to L2C, LLC: ON
DRAM IO FREQUENCY: 6400
ROB SIZE: 352
Off-chip DRAM Size: 4096 MB Channels: 1 Width: 64-bit Data Rate: 6400 MT/s
CPU 0 runs /home/sumon/secure_berti/GhostMinion/../../traces/spec/600.perlbench_s-570B.champsimtrace.xz
.xz
BTB has LRU replacement policy
ITLB has LRU replacement policy
DTLB has LRU replacement policy
STLB has LRU replacement policy
L1I has LRU replacement policy
L0D has LRU replacement policy
History Sets: 8
History Ways: 16
BERTI Size: 16
BERTI Stride Size: 16
L1D has LRU replacement policy
L2C has LRU replacement policy
LLC has LRU replacement policy
Heartbeat CPU 0 instructions: 10000003 cycles: 3771137 heartbeat IPC: 2.65172 cumulative IPC: 2.65172 (Simulation time: 0 hr 0 min 37 sec) 
Heartbeat CPU 0 instructions: 20000000 cycles: 7478231 heartbeat IPC: 2.69753 cumulative IPC: 2.67443 (Simulation time: 0 hr 1 min 15 sec) 
Heartbeat CPU 0 instructions: 30000000 cycles: 11410634 heartbeat IPC: 2.54297 cumulative IPC: 2.62913 (Simulation time: 0 hr 1 min 52 sec) 
Heartbeat CPU 0 instructions: 40000002 cycles: 15308213 heartbeat IPC: 2.5657 cumulative IPC: 2.61298 (Simulation time: 0 hr 2 min 29 sec) 
Heartbeat CPU 0 instructions: 50000002 cycles: 18987705 heartbeat IPC: 2.71777 cumulative IPC: 2.63328 (Simulation time: 0 hr 3 min 8 sec) 

Warmup complete CPU 0 instructions: 50000002 cycles: 18987705 (Simulation time: 0 hr 3 min 8 sec) 

Heartbeat CPU 0 instructions: 60000000 cycles: 31952704 heartbeat IPC: 0.771307 cumulative IPC: 0.771307 (Simulation time: 0 hr 3 min 52 sec) 
Heartbeat CPU 0 instructions: 70000000 cycles: 52352672 heartbeat IPC: 0.490197 cumulative IPC: 0.599431 (Simulation time: 0 hr 4 min 41 sec) 
Heartbeat CPU 0 instructions: 80000002 cycles: 73637045 heartbeat IPC: 0.469828 cumulative IPC: 0.548954 (Simulation time: 0 hr 5 min 32 sec) 
Heartbeat CPU 0 instructions: 90000003 cycles: 99185730 heartbeat IPC: 0.39141 cumulative IPC: 0.498765 (Simulation time: 0 hr 6 min 26 sec) 
Heartbeat CPU 0 instructions: 100000002 cycles: 113270391 heartbeat IPC: 0.709992 cumulative IPC: 0.53032 (Simulation time: 0 hr 7 min 14 sec) 
Heartbeat CPU 0 instructions: 110000000 cycles: 127239712 heartbeat IPC: 0.715854 cumulative IPC: 0.554262 (Simulation time: 0 hr 8 min 2 sec) 
Heartbeat CPU 0 instructions: 120000003 cycles: 141950020 heartbeat IPC: 0.679796 cumulative IPC: 0.56928 (Simulation time: 0 hr 8 min 51 sec) 
Heartbeat CPU 0 instructions: 130000000 cycles: 156516402 heartbeat IPC: 0.686512 cumulative IPC: 0.581697 (Simulation time: 0 hr 9 min 40 sec) 
Heartbeat CPU 0 instructions: 140000003 cycles: 182381407 heartbeat IPC: 0.386623 cumulative IPC: 0.550817 (Simulation time: 0 hr 10 min 36 sec) 
Heartbeat CPU 0 instructions: 150000001 cycles: 206228305 heartbeat IPC: 0.419342 cumulative IPC: 0.534072 (Simulation time: 0 hr 11 min 33 sec) 
Heartbeat CPU 0 instructions: 160000001 cycles: 226514968 heartbeat IPC: 0.492935 cumulative IPC: 0.530051 (Simulation time: 0 hr 12 min 26 sec) 
Heartbeat CPU 0 instructions: 170000001 cycles: 241998878 heartbeat IPC: 0.645832 cumulative IPC: 0.53809 (Simulation time: 0 hr 13 min 17 sec) 
Heartbeat CPU 0 instructions: 180000000 cycles: 261208230 heartbeat IPC: 0.52058 cumulative IPC: 0.536701 (Simulation time: 0 hr 14 min 10 sec) 
Heartbeat CPU 0 instructions: 190000001 cycles: 286917334 heartbeat IPC: 0.388967 cumulative IPC: 0.522525 (Simulation time: 0 hr 15 min 7 sec) 
Heartbeat CPU 0 instructions: 200000001 cycles: 311218558 heartbeat IPC: 0.411502 cumulative IPC: 0.513293 (Simulation time: 0 hr 16 min 5 sec) 
Heartbeat CPU 0 instructions: 210000000 cycles: 330348540 heartbeat IPC: 0.52274 cumulative IPC: 0.513873 (Simulation time: 0 hr 16 min 58 sec) 
Heartbeat CPU 0 instructions: 220000000 cycles: 345062914 heartbeat IPC: 0.679608 cumulative IPC: 0.521352 (Simulation time: 0 hr 17 min 48 sec) 
Heartbeat CPU 0 instructions: 230000000 cycles: 358635170 heartbeat IPC: 0.736797 cumulative IPC: 0.529961 (Simulation time: 0 hr 18 min 33 sec) 
Heartbeat CPU 0 instructions: 240000002 cycles: 373067870 heartbeat IPC: 0.692871 cumulative IPC: 0.536602 (Simulation time: 0 hr 19 min 17 sec) 
Heartbeat CPU 0 instructions: 250000003 cycles: 388033614 heartbeat IPC: 0.668193 cumulative IPC: 0.541938 (Simulation time: 0 hr 20 min 1 sec) 
Finished CPU 0 instructions: 200000001 cycles: 369045909 cumulative IPC: 0.541938 (Simulation time: 0 hr 20 min 1 sec) 
 Instruction ID: 250000017

ChampSim completed all CPUs

Region of Interest Statistics

CPU 0 cumulative IPC: 0.541938 instructions: 200000001 cycles: 369045909
ITLB SPEC fills:          0  NON-SPEC fills:          0
ITLB Test counter :          0
ITLB Leapfrog:          0
ITLB MSHR merge:          0
ITLB TOTAL     ACCESS:   31176797  HIT:   31117926  MISS:      58871  HIT %:    99.8112  MISS %:    0.18883   MPKI: 0.294355
ITLB LOAD TRANSLATION NON_SPEC    ACCESS:   31176797  HIT:   31117926  MISS:      58871  HIT %:    99.8112  MISS %:    0.18883   MPKI: 0.294355
ITLB PREFETCH  REQUESTED:          0  ISSUED:          0  USEFUL:          0  USELESS:          0
ITLB USEFUL LOAD PREFETCHES:          0 PREFETCH ISSUED TO LOWER LEVEL:          0  ACCURACY: -nan
ITLB TIMELY PREFETCHES:          0 LATE PREFETCHES: 0 DROPPED PREFETCHES: 0
ITLB COMMIT LATE PREFETCHES: 0 NORMAL LATE: 0 MISSED OPPORTUNITY: 0 UNCOVERED: 0
ITLB PREFETCHES SAME FILL-ORIGIN LEVEL: 0 DIFFERENT FILL-ORIGIN LEVEL: 0
ITLB AVERAGE MISS LATENCY: 10.7694 cycles
ITLB AVERAGE MISS LATENCY LOAD: -nan cycles
ITLB AVERAGE MISS LATENCY PREFETCH: -nan cycles
ITLB AVERAGE MSHR OCCUPANCY: 0.00104066
ITLB MSHR FULL: 0
ITLB RQ	ACCESS:   35143170	FORWARD:          0	MERGED:    3944804	TO_CACHE:   31198366

DTLB SPEC fills:          0  NON-SPEC fills:          0
DTLB Test counter :          0
DTLB Leapfrog:          0
DTLB MSHR merge:          0
DTLB TOTAL     ACCESS:   57156871  HIT:   56619036  MISS:     537835  HIT %:     99.059  MISS %:    0.94098   MPKI: 2.68917
DTLB LOAD TRANSLATION NON_SPEC    ACCESS:   57156871  HIT:   56619036  MISS:     537835  HIT %:     99.059  MISS %:    0.94098   MPKI: 2.68917
DTLB PREFETCH  REQUESTED:          0  ISSUED:          0  USEFUL:          0  USELESS:          0
DTLB USEFUL LOAD PREFETCHES:          0 PREFETCH ISSUED TO LOWER LEVEL:          0  ACCURACY: -nan
DTLB TIMELY PREFETCHES:          0 LATE PREFETCHES: 0 DROPPED PREFETCHES: 0
DTLB COMMIT LATE PREFETCHES: 0 NORMAL LATE: 0 MISSED OPPORTUNITY: 0 UNCOVERED: 0
DTLB PREFETCHES SAME FILL-ORIGIN LEVEL: 0 DIFFERENT FILL-ORIGIN LEVEL: 0
DTLB AVERAGE MISS LATENCY: 14.8353 cycles
DTLB AVERAGE MISS LATENCY LOAD: -nan cycles
DTLB AVERAGE MISS LATENCY PREFETCH: -nan cycles
DTLB AVERAGE MSHR OCCUPANCY: 0.0133782
DTLB MSHR FULL: 1.36424e-06
DTLB RQ	ACCESS:   79015936	FORWARD:          0	MERGED:   21841409	TO_CACHE:   57174527

STLB SPEC fills:          0  NON-SPEC fills:          0
STLB Test counter :          0
STLB Leapfrog:          0
STLB MSHR merge:          0
STLB TOTAL     ACCESS:     782452  HIT:     758611  MISS:      23841  HIT %:     96.953  MISS %:    3.04696   MPKI: 0.119205
STLB LOAD TRANSLATION NON_SPEC    ACCESS:     596706  HIT:     573231  MISS:      23475  HIT %:    96.0659  MISS %:     3.9341   MPKI: 0.117375
STLB TRANSLATION FROM L1D PREFETCHER NON_SPEC    ACCESS:     185746  HIT:     185380  MISS:        366  HIT %:     99.803  MISS %:   0.197043   MPKI: 0.00183
STLB PREFETCH  REQUESTED:          0  ISSUED:          0  USEFUL:        317  USELESS:         49
STLB USEFUL LOAD PREFETCHES:        317 PREFETCH ISSUED TO LOWER LEVEL:          0  ACCURACY: inf
STLB TIMELY PREFETCHES:        317 LATE PREFETCHES: 4 DROPPED PREFETCHES: 1994
STLB COMMIT LATE PREFETCHES: 0 NORMAL LATE: 4 MISSED OPPORTUNITY: 0 UNCOVERED: 18446744073709551612
STLB PREFETCHES SAME FILL-ORIGIN LEVEL: 0 DIFFERENT FILL-ORIGIN LEVEL: 0
STLB AVERAGE MISS LATENCY: 136.683 cycles
STLB AVERAGE MISS LATENCY LOAD: -nan cycles
STLB AVERAGE MISS LATENCY PREFETCH: -nan cycles
STLB AVERAGE MSHR OCCUPANCY: 0.00639138
STLB MSHR FULL: 0
STLB RQ	ACCESS:    1090798	FORWARD:          0	MERGED:     306304	TO_CACHE:     784494

STLB Hit, L1D data hit: 0
STLB Hit, L2C data hit: 0
STLB Hit, LLC data hit: 0
STLB Hit, LLC data miss: 0
STLB STLB hints to L2: 0
L0D SPEC fills:   22333358  NON-SPEC fills:          0
L0D TimeGuard Request with older TS:      58989 Restricted eviction:      53666 read:      38623
L0D Test counter :          0
L0D Leapfrog:          0
L0D MSHR merge:     630350
L0D TOTAL     ACCESS:   38644953  HIT:    3376051  MISS:   35268902  HIT %:    8.73607  MISS %:    91.2639   MPKI: 176.345
L0D LOAD      TOTAL       ACCESS:   38644953  HIT:    3376051  MISS:   35268902  HIT %:    8.73607  MISS %:    91.2639   MPKI: 176.345
L0D LOAD      NON_SPEC    ACCESS:   13029807  HIT:     147919  MISS:   12881888  HIT %:    1.13524  MISS %:    98.8648   MPKI: 64.4094
L0D LOAD      SPEC        ACCESS:   25615146  HIT:    3228132  MISS:   22387014  HIT %:    12.6024  MISS %:    87.3976   MPKI: 111.935
L0D PREFETCH  REQUESTED:          0  ISSUED:          0  USEFUL:          0  USELESS:          0
L0D USEFUL LOAD PREFETCHES:          0 PREFETCH ISSUED TO LOWER LEVEL:          0  ACCURACY: -nan
L0D TIMELY PREFETCHES:          0 LATE PREFETCHES: 0 DROPPED PREFETCHES: 0
L0D COMMIT LATE PREFETCHES: 0 NORMAL LATE: 0 MISSED OPPORTUNITY: 0 UNCOVERED: 35268902
L0D PREFETCHES SAME FILL-ORIGIN LEVEL: 0 DIFFERENT FILL-ORIGIN LEVEL: 0
L0D AVERAGE MISS LATENCY: 6.2395 cycles
L0D AVERAGE MISS LATENCY LOAD: 6.2395 cycles
L0D AVERAGE MISS LATENCY PREFETCH: -nan cycles
L0D AVERAGE MSHR OCCUPANCY: 0.584855
L0D MSHR FULL: 5.77968e-06
L0D RQ	ACCESS:   46797630	FORWARD:          0	MERGED:    7522332	TO_CACHE:   39275298
L0D WQ	ACCESS:   39740638	FORWARD:          0	MERGED:          0	TO_CACHE:   39740638

L1D SPEC fills:          0  NON-SPEC fills:     229160
L1D Test counter :          0
L1D Leapfrog:          0
L1D MSHR merge:       2896
L1D TOTAL     ACCESS:  104451450  HIT:  103577220  MISS:     874230  HIT %:     99.163  MISS %:   0.836973   MPKI: 4.37115
L1D LOAD      TOTAL       ACCESS:   35266056  HIT:   34742394  MISS:     523662  HIT %:    98.5151  MISS %:    1.48489   MPKI: 2.61831
L1D LOAD      NON_SPEC    ACCESS:   12879953  HIT:   12650793  MISS:     229160  HIT %:    98.2208  MISS %:     1.7792   MPKI: 1.1458
L1D LOAD      SPEC        ACCESS:   22386103  HIT:   22091601  MISS:     294502  HIT %:    98.6844  MISS %:    1.31556   MPKI: 1.47251
L1D RFO       NON_SPEC    ACCESS:   38217667  HIT:   38169266  MISS:      48401  HIT %:    99.8734  MISS %:   0.126646   MPKI: 0.242005
L1D PREFETCH  NON_SPEC    ACCESS:     235332  HIT:     226680  MISS:       8652  HIT %:    96.3235  MISS %:    3.67651   MPKI: 0.04326
L1D COMMIT LOAD NON_SPEC    ACCESS:    8498254  HIT:    8495555  MISS:       2699  HIT %:    99.9682  MISS %:  0.0317595   MPKI: 0.013495
L1D COMMIT WRITE NON_SPEC    ACCESS:   22234141  HIT:   21943325  MISS:     290816  HIT %:     98.692  MISS %:    1.30797   MPKI: 1.45408
L1D PREFETCH  REQUESTED:     587986  ISSUED:     587807  USEFUL:       6099  USELESS:       2553
L1D USEFUL LOAD PREFETCHES:       6099 PREFETCH ISSUED TO LOWER LEVEL:     262481  ACCURACY: 2.3236
L1D TIMELY PREFETCHES:       6099 LATE PREFETCHES: 50 DROPPED PREFETCHES: 3465
L1D COMMIT LATE PREFETCHES: 0 NORMAL LATE: 50 MISSED OPPORTUNITY: 0 UNCOVERED: 523612
L1D PREFETCHES SAME FILL-ORIGIN LEVEL: 8702 DIFFERENT FILL-ORIGIN LEVEL: 253779
L1D AVERAGE MISS LATENCY: 47.4481 cycles
L1D AVERAGE MISS LATENCY LOAD: 72.9399 cycles
L1D AVERAGE MISS LATENCY PREFETCH: 66.3583 cycles
L1D AVERAGE MSHR OCCUPANCY: 0.0213965
L1D MSHR FULL: 1.8941e-05
L1D RQ	ACCESS:   46703950	FORWARD:          0	MERGED:    2602207	TO_CACHE:   43767255
L1D WQ	ACCESS:   62046191	FORWARD:     334488	MERGED:    1499702	TO_CACHE:   60546489
L1D PQ	ACCESS:     587807	FORWARD:          0	MERGED:      93715	TO_CACHE:     494092

L1D UNIQUE REGIONS ACCESSED: 0
L1D REGIONS CONFLICTS: 0
L1D Cross Page Prefetch Requests: 64142
L1D Same Page Prefetch Requests: 564658
L1D ROI Sum of L1D PQ occupancy: 7292944
L1D PREFETCHES PUSHED FROM L2C: 0
L1I SPEC fills:          0  NON-SPEC fills:          0
L1I Test counter :          0
L1I Leapfrog:          0
L1I MSHR merge:     219754
L1I TOTAL     ACCESS:   34923416  HIT:   34049065  MISS:     874351  HIT %:    97.4964  MISS %:    2.50362   MPKI: 4.37175
L1I LOAD      TOTAL       ACCESS:   34923416  HIT:   34049065  MISS:     874351  HIT %:    97.4964  MISS %:    2.50362   MPKI: 4.37175
L1I LOAD      NON_SPEC    ACCESS:   34923416  HIT:   34049065  MISS:     874351  HIT %:    97.4964  MISS %:    2.50362   MPKI: 4.37175
L1I PREFETCH  REQUESTED:          0  ISSUED:          0  USEFUL:          0  USELESS:          0
L1I USEFUL LOAD PREFETCHES:          0 PREFETCH ISSUED TO LOWER LEVEL:          0  ACCURACY: -nan
L1I TIMELY PREFETCHES:          0 LATE PREFETCHES: 0 DROPPED PREFETCHES: 0
L1I COMMIT LATE PREFETCHES: 0 NORMAL LATE: 0 MISSED OPPORTUNITY: 0 UNCOVERED: 874351
L1I PREFETCHES SAME FILL-ORIGIN LEVEL: 0 DIFFERENT FILL-ORIGIN LEVEL: 0
L1I AVERAGE MISS LATENCY: 17.7288 cycles
L1I AVERAGE MISS LATENCY LOAD: 17.7288 cycles
L1I AVERAGE MISS LATENCY PREFETCH: -nan cycles
L1I AVERAGE MSHR OCCUPANCY: 0.0330559
L1I MSHR FULL: 0
L1I RQ	ACCESS:   55988635	FORWARD:          0	MERGED:   20845465	TO_CACHE:   35143170

BTB SPEC fills:          0  NON-SPEC fills:          0
BTB Test counter :          0
BTB Leapfrog:          0
BTB MSHR merge:          0
BTB TOTAL     ACCESS:   25984963  HIT:   24489037  MISS:    1495926  HIT %:    94.2431  MISS %:    5.75689   MPKI: 7.47963
BTB BRANCH_DIRECT_JUMP	ACCESS:    4141047  HIT:    4130444  MISS:      10603
BTB BRANCH_INDIRECT	ACCESS:    1274734  HIT:     405661  MISS:     869073
BTB BRANCH_CONDITIONAL	ACCESS:   16683297  HIT:   16654181  MISS:      29116
BTB BRANCH_DIRECT_CALL	ACCESS:    1551808  HIT:    1544398  MISS:       7410
BTB BRANCH_INDIRECT_CALL	ACCESS:     391135  HIT:      53393  MISS:     337742
BTB BRANCH_RETURN	ACCESS:    1942942  HIT:    1700960  MISS:     241982
BTB BRANCH_OTHER ACCESS:          0  HIT:          0  MISS:          0

L2C SPEC fills:          0  NON-SPEC fills:     103691
L2C Test counter :          0
L2C Leapfrog:          0
L2C MSHR merge:        651
L2C TOTAL     ACCESS:    2301029  HIT:    1867132  MISS:     433897  HIT %:    81.1433  MISS %:    18.8567   MPKI: 2.16948
L2C LOAD      TOTAL       ACCESS:    1397943  HIT:    1146925  MISS:     251018  HIT %:    82.0438  MISS %:    17.9562   MPKI: 1.25509
L2C LOAD      NON_SPEC    ACCESS:    1103492  HIT:     963540  MISS:     139952  HIT %:    87.3174  MISS %:    12.6826   MPKI: 0.69976
L2C LOAD      SPEC        ACCESS:     294451  HIT:     183385  MISS:     111066  HIT %:    62.2803  MISS %:    37.7197   MPKI: 0.55533
L2C RFO       NON_SPEC    ACCESS:      48401  HIT:      34197  MISS:      14204  HIT %:    70.6535  MISS %:    29.3465   MPKI: 0.07102
L2C PREFETCH  NON_SPEC    ACCESS:     258894  HIT:     216596  MISS:      42298  HIT %:     83.662  MISS %:     16.338   MPKI: 0.21149
L2C WRITEBACK NON_SPEC    ACCESS:      70195  HIT:      69833  MISS:        362  HIT %:    99.4843  MISS %:   0.515706   MPKI: 0.00181
L2C CLEAN_EVICTION NON_SPEC    ACCESS:     393763  HIT:     280005  MISS:     113758  HIT %:      71.11  MISS %:      28.89   MPKI: 0.56879
L2C COMMIT LOAD NON_SPEC    ACCESS:       2697  HIT:       2352  MISS:        345  HIT %:     87.208  MISS %:     12.792   MPKI: 0.001725
L2C LOAD TRANSLATION NON_SPEC    ACCESS:     117316  HIT:     105641  MISS:      11675  HIT %:    90.0482  MISS %:    9.95175   MPKI: 0.058375
L2C TRANSLATION FROM L1D PREFETCHER NON_SPEC    ACCESS:      11820  HIT:      11583  MISS:        237  HIT %:    97.9949  MISS %:    2.00508   MPKI: 0.001185
L2C PREFETCH  REQUESTED:          0  ISSUED:          0  USEFUL:      14093  USELESS:      28462
L2C USEFUL LOAD PREFETCHES:      14093 PREFETCH ISSUED TO LOWER LEVEL:      42949  ACCURACY: 32.8133
L2C TIMELY PREFETCHES:      14093 LATE PREFETCHES: 651 DROPPED PREFETCHES: 0
L2C COMMIT LATE PREFETCHES: 0 NORMAL LATE: 651 MISSED OPPORTUNITY: 0 UNCOVERED: 250367
L2C PREFETCHES SAME FILL-ORIGIN LEVEL: 40508 DIFFERENT FILL-ORIGIN LEVEL: 0
L2C AVERAGE MISS LATENCY: 103.647 cycles
L2C AVERAGE MISS LATENCY LOAD: 138.345 cycles
L2C AVERAGE MISS LATENCY PREFETCH: 167.379 cycles
L2C AVERAGE MSHR OCCUPANCY: 0.136622
L2C MSHR FULL: 0
L2C RQ	ACCESS:    1578199	FORWARD:          0	MERGED:          0	TO_CACHE:    1578177
L2C WQ	ACCESS:     463958	FORWARD:         22	MERGED:          0	TO_CACHE:     463958
L2C PQ	ACCESS:     262481	FORWARD:          0	MERGED:          4	TO_CACHE:     262477

L2C Instructions Evicting Data 29764
L2C Translations Evicting Data 9958
L2C Data Evicting Data 135334
L2C Instructions Evicting Instructions 4642
L2C Translations Evicting Instructions 1446
L2C Data Evicting Instructions 18182
L2C Instructions Evicting Translations 1501
L2C Translations Evicting Translations 383
L2C Data Evicting Translations 5878
L2C Dense regions hint from L2: 0
PSCL5 SPEC fills:          0  NON-SPEC fills:          0
PSCL5 Test counter :          0
PSCL5 Leapfrog:          0
PSCL5 MSHR merge:          0
PSCL5 TOTAL     ACCESS:          0  HIT:          0  MISS:          0  HIT %:       -nan  MISS %:       -nan   MPKI: 0
PSCL5 PREFETCH  REQUESTED:          0  ISSUED:          0  USEFUL:          0  USELESS:          0
PSCL5 USEFUL LOAD PREFETCHES:          0 PREFETCH ISSUED TO LOWER LEVEL:          0  ACCURACY: -nan
PSCL5 TIMELY PREFETCHES:          0 LATE PREFETCHES: 0 DROPPED PREFETCHES: 0
PSCL5 COMMIT LATE PREFETCHES: 0 NORMAL LATE: 0 MISSED OPPORTUNITY: 0 UNCOVERED: 0
PSCL5 PREFETCHES SAME FILL-ORIGIN LEVEL: 0 DIFFERENT FILL-ORIGIN LEVEL: 0

PSCL4 SPEC fills:          0  NON-SPEC fills:          0
PSCL4 Test counter :          0
PSCL4 Leapfrog:          0
PSCL4 MSHR merge:          0
PSCL4 TOTAL     ACCESS:          0  HIT:          0  MISS:          0  HIT %:       -nan  MISS %:       -nan   MPKI: 0
PSCL4 PREFETCH  REQUESTED:          0  ISSUED:          0  USEFUL:          0  USELESS:          0
PSCL4 USEFUL LOAD PREFETCHES:          0 PREFETCH ISSUED TO LOWER LEVEL:          0  ACCURACY: -nan
PSCL4 TIMELY PREFETCHES:          0 LATE PREFETCHES: 0 DROPPED PREFETCHES: 0
PSCL4 COMMIT LATE PREFETCHES: 0 NORMAL LATE: 0 MISSED OPPORTUNITY: 0 UNCOVERED: 0
PSCL4 PREFETCHES SAME FILL-ORIGIN LEVEL: 0 DIFFERENT FILL-ORIGIN LEVEL: 0

PSCL3 SPEC fills:          0  NON-SPEC fills:          0
PSCL3 Test counter :          0
PSCL3 Leapfrog:          0
PSCL3 MSHR merge:          0
PSCL3 TOTAL     ACCESS:          0  HIT:          0  MISS:          0  HIT %:       -nan  MISS %:       -nan   MPKI: 0
PSCL3 PREFETCH  REQUESTED:          0  ISSUED:          0  USEFUL:          0  USELESS:          0
PSCL3 USEFUL LOAD PREFETCHES:          0 PREFETCH ISSUED TO LOWER LEVEL:          0  ACCURACY: -nan
PSCL3 TIMELY PREFETCHES:          0 LATE PREFETCHES: 0 DROPPED PREFETCHES: 0
PSCL3 COMMIT LATE PREFETCHES: 0 NORMAL LATE: 0 MISSED OPPORTUNITY: 0 UNCOVERED: 0
PSCL3 PREFETCHES SAME FILL-ORIGIN LEVEL: 0 DIFFERENT FILL-ORIGIN LEVEL: 0

PSCL2 SPEC fills:          0  NON-SPEC fills:          0
PSCL2 Test counter :          0
PSCL2 Leapfrog:          0
PSCL2 MSHR merge:          0
PSCL2 TOTAL     ACCESS:          0  HIT:          0  MISS:          0  HIT %:       -nan  MISS %:       -nan   MPKI: 0
PSCL2 PREFETCH  REQUESTED:          0  ISSUED:          0  USEFUL:          0  USELESS:          0
PSCL2 USEFUL LOAD PREFETCHES:          0 PREFETCH ISSUED TO LOWER LEVEL:          0  ACCURACY: -nan
PSCL2 TIMELY PREFETCHES:          0 LATE PREFETCHES: 0 DROPPED PREFETCHES: 0
PSCL2 COMMIT LATE PREFETCHES: 0 NORMAL LATE: 0 MISSED OPPORTUNITY: 0 UNCOVERED: 0
PSCL2 PREFETCHES SAME FILL-ORIGIN LEVEL: 0 DIFFERENT FILL-ORIGIN LEVEL: 0

LLC SPEC fills:          0  NON-SPEC fills:      88421
LLC Test counter :          0
LLC Leapfrog:          0
LLC MSHR merge:          0
LLC TOTAL     ACCESS:     516089  HIT:     180848  MISS:     335241  HIT %:     35.042  MISS %:     64.958   MPKI: 1.6762
LLC LOAD      TOTAL       ACCESS:     250366  HIT:      59699  MISS:     190667  HIT %:    23.8447  MISS %:    76.1553   MPKI: 0.953335
LLC LOAD      NON_SPEC    ACCESS:     139712  HIT:      37948  MISS:     101764  HIT %:    27.1616  MISS %:    72.8384   MPKI: 0.50882
LLC LOAD      SPEC        ACCESS:     110654  HIT:      21751  MISS:      88903  HIT %:    19.6568  MISS %:    80.3432   MPKI: 0.444515
LLC RFO       NON_SPEC    ACCESS:      14204  HIT:       4509  MISS:       9695  HIT %:    31.7446  MISS %:    68.2554   MPKI: 0.048475
LLC PREFETCH  NON_SPEC    ACCESS:      42949  HIT:       5555  MISS:      37394  HIT %:    12.9339  MISS %:    87.0661   MPKI: 0.18697
LLC WRITEBACK NON_SPEC    ACCESS:      22678  HIT:      22384  MISS:        294  HIT %:    98.7036  MISS %:    1.29641   MPKI: 0.00147
LLC CLEAN_EVICTION NON_SPEC    ACCESS:     173635  HIT:      81676  MISS:      91959  HIT %:    47.0389  MISS %:    52.9611   MPKI: 0.459795
LLC COMMIT LOAD NON_SPEC    ACCESS:        345  HIT:        182  MISS:        163  HIT %:    52.7536  MISS %:    47.2464   MPKI: 0.000815
LLC LOAD TRANSLATION NON_SPEC    ACCESS:      11675  HIT:       6700  MISS:       4975  HIT %:    57.3876  MISS %:    42.6124   MPKI: 0.024875
LLC TRANSLATION FROM L1D PREFETCHER NON_SPEC    ACCESS:        237  HIT:        143  MISS:         94  HIT %:    60.3376  MISS %:    39.6624   MPKI: 0.00047
LLC PREFETCH  REQUESTED:          0  ISSUED:          0  USEFUL:       1326  USELESS:      32890
LLC USEFUL LOAD PREFETCHES:       1326 PREFETCH ISSUED TO LOWER LEVEL:      37394  ACCURACY: 3.54602
LLC TIMELY PREFETCHES:       1326 LATE PREFETCHES: 0 DROPPED PREFETCHES: 0
LLC COMMIT LATE PREFETCHES: 0 NORMAL LATE: 0 MISSED OPPORTUNITY: 0 UNCOVERED: 190667
LLC PREFETCHES SAME FILL-ORIGIN LEVEL: 0 DIFFERENT FILL-ORIGIN LEVEL: 0
LLC AVERAGE MISS LATENCY: 108.601 cycles
LLC AVERAGE MISS LATENCY LOAD: 147.573 cycles
LLC AVERAGE MISS LATENCY PREFETCH: 157.77 cycles
LLC AVERAGE MSHR OCCUPANCY: 0.238015
LLC MSHR FULL: 0
LLC RQ	ACCESS:     276828	FORWARD:          0	MERGED:          0	TO_CACHE:     276827
LLC WQ	ACCESS:     196313	FORWARD:          1	MERGED:          0	TO_CACHE:     196313
LLC PQ	ACCESS:      42949	FORWARD:          0	MERGED:          0	TO_CACHE:      42949

LLC Dense regions hint to LLC: 0

RAW hits: 3033605
Loads Generated: 49831234
Loads sent to L1D: 46797630
Stores Generated: 39740622
Stores sent to L1D: 39740638
Major fault: 0 Minor fault: 5924
Allocated PAGES: 5924
Total Load insts: 55953957
Total Non-spec loads: 13947468
Percentage of speculative loads: 75.0733

LeapFrogging counter: 168
Commit hits: 22305553 miss: 11435051
Commit hit %: 66.1089 miss %: 33.8911
Commits not translated: 0
Loads retired: 523662
Stores retired: 39740638
Cache fills: 523662
L1D response latency: 72.9399 cycles
Load retirement latency: 104.856 cycles
OOO test counter: 0
Discarded buffer inserts: 22305553 hits: 3525 hit %: 0.0158032
Filter prediction accuracy: -nan
LATENCY_FILL: 72.8804 525965

DRAM Statistics
 CHANNEL 0
 RQ ROW_BUFFER_HIT:      38667  ROW_BUFFER_MISS:     204321
 DBUS_CONGESTED:         52
 WQ ROW_BUFFER_HIT:      35173  ROW_BUFFER_MISS:     105089  FULL:          0

 AVG_CONGESTED_CYCLE: 5
 All warmup complete: 2
Channel 0 Bank busy for read cycles: 0
Channel 0 Bank busy for write cycles: 0
Channel 0
Rank 0
0banks busy for read cycles: 324914289
0banks busy for write cycles: 70049
1banks busy for read cycles: 22090625
1banks busy for write cycles: 11945645
2banks busy for read cycles: 3410715
2banks busy for write cycles: 3679190
3banks busy for read cycles: 687855
3banks busy for write cycles: 1085876
4banks busy for read cycles: 179134
4banks busy for write cycles: 411592
5banks busy for read cycles: 77027
5banks busy for write cycles: 190494
6banks busy for read cycles: 36465
6banks busy for write cycles: 111063
7banks busy for read cycles: 24550
7banks busy for write cycles: 68370
8banks busy for read cycles: 14259
8banks busy for write cycles: 48712

CPU 0 Branch Prediction Accuracy: 99.0693% MPKI: 1.53431 Average ROB Occupancy at Mispredict: 50.393
Branch types
NOT_BRANCH: 167028092 83.514%
BRANCH_DIRECT_JUMP: 4141047 2.07052%
BRANCH_INDIRECT: 1274734 0.637367%
BRANCH_CONDITIONAL: 23669876 11.8349%
BRANCH_DIRECT_CALL: 1551808 0.775904%
BRANCH_INDIRECT_CALL: 391135 0.195567%
BRANCH_RETURN: 1942942 0.971471%
BRANCH_OTHER: 0 0%

DRAM PAGES: 1048576
Allocated PAGES: 5924
