
*** ChampSim Multicore Out-of-Order Simulator ***

Warmup Instructions: 50000000
Simulation Instructions: 200000000
Number of CPUs: 1
LLC sets: 2048
LLC ways: 16
L0D sets: 16
L0D ways: 2
ROB size: 352
LQ size: 128
SQ size: 72
Secure Berti: OFF
Berti: OFF
Berti Fill: OFF
On commit prefetching: OFF
Hit-based filter: OFF
Time-guarding: ON
Free-slotting: ON
Leap-frogging: ON
Train prefetcher on L0D bypass: OFF
No translation penalty for prefetchers: OFF
Prefetch to L0D only: OFF
Prefetch to L1D only: OFF
Clean evictions: ON
Commit loads: ON
Commit write: ON
Fill commit loads to L2C, LLC: ON
DRAM IO FREQUENCY: 6400
ROB SIZE: 352
Off-chip DRAM Size: 4096 MB Channels: 1 Width: 64-bit Data Rate: 6400 MT/s
CPU 0 runs /home/sumon/secure_berti/GhostMinion/../../traces/spec/602.gcc_s-1850B.champsimtrace.xz
.xz
BTB has LRU replacement policy
ITLB has LRU replacement policy
DTLB has LRU replacement policy
STLB has LRU replacement policy
L1I has LRU replacement policy
L0D has LRU replacement policy
History Sets: 8
History Ways: 16
BERTI Size: 16
BERTI Stride Size: 16
L1D has LRU replacement policy
L2C has LRU replacement policy
LLC has LRU replacement policy
Heartbeat CPU 0 instructions: 10000002 cycles: 5256856 heartbeat IPC: 1.90228 cumulative IPC: 1.90228 (Simulation time: 0 hr 0 min 43 sec) 
Heartbeat CPU 0 instructions: 20000000 cycles: 10513696 heartbeat IPC: 1.90228 cumulative IPC: 1.90228 (Simulation time: 0 hr 1 min 25 sec) 
Heartbeat CPU 0 instructions: 30000000 cycles: 15767353 heartbeat IPC: 1.90344 cumulative IPC: 1.90267 (Simulation time: 0 hr 2 min 8 sec) 
Heartbeat CPU 0 instructions: 40000000 cycles: 21021036 heartbeat IPC: 1.90343 cumulative IPC: 1.90286 (Simulation time: 0 hr 2 min 51 sec) 
Heartbeat CPU 0 instructions: 50000000 cycles: 26277094 heartbeat IPC: 1.90257 cumulative IPC: 1.9028 (Simulation time: 0 hr 3 min 35 sec) 

Warmup complete CPU 0 instructions: 50000004 cycles: 26277095 (Simulation time: 0 hr 3 min 35 sec) 

Heartbeat CPU 0 instructions: 60000003 cycles: 46826022 heartbeat IPC: 0.486644 cumulative IPC: 0.486643 (Simulation time: 0 hr 4 min 48 sec) 
Heartbeat CPU 0 instructions: 70000002 cycles: 67370345 heartbeat IPC: 0.486752 cumulative IPC: 0.486698 (Simulation time: 0 hr 6 min 3 sec) 
Heartbeat CPU 0 instructions: 80000003 cycles: 87915242 heartbeat IPC: 0.486739 cumulative IPC: 0.486712 (Simulation time: 0 hr 7 min 19 sec) 
Heartbeat CPU 0 instructions: 90000001 cycles: 108492738 heartbeat IPC: 0.485968 cumulative IPC: 0.486525 (Simulation time: 0 hr 8 min 36 sec) 
Heartbeat CPU 0 instructions: 100000000 cycles: 129025221 heartbeat IPC: 0.487033 cumulative IPC: 0.486627 (Simulation time: 0 hr 9 min 53 sec) 
Heartbeat CPU 0 instructions: 110000000 cycles: 149668016 heartbeat IPC: 0.484431 cumulative IPC: 0.486259 (Simulation time: 0 hr 11 min 11 sec) 
Heartbeat CPU 0 instructions: 120000003 cycles: 170308131 heartbeat IPC: 0.484494 cumulative IPC: 0.486006 (Simulation time: 0 hr 12 min 30 sec) 
Heartbeat CPU 0 instructions: 130000003 cycles: 190911434 heartbeat IPC: 0.485359 cumulative IPC: 0.485925 (Simulation time: 0 hr 13 min 49 sec) 
Heartbeat CPU 0 instructions: 140000000 cycles: 211449786 heartbeat IPC: 0.486894 cumulative IPC: 0.486033 (Simulation time: 0 hr 15 min 8 sec) 
Heartbeat CPU 0 instructions: 150000000 cycles: 231987072 heartbeat IPC: 0.486919 cumulative IPC: 0.486121 (Simulation time: 0 hr 16 min 27 sec) 
Heartbeat CPU 0 instructions: 160000000 cycles: 252614068 heartbeat IPC: 0.484802 cumulative IPC: 0.486001 (Simulation time: 0 hr 17 min 44 sec) 
Heartbeat CPU 0 instructions: 170000003 cycles: 273243234 heartbeat IPC: 0.484751 cumulative IPC: 0.485897 (Simulation time: 0 hr 18 min 57 sec) 
Heartbeat CPU 0 instructions: 180000000 cycles: 293814165 heartbeat IPC: 0.486123 cumulative IPC: 0.485914 (Simulation time: 0 hr 20 min 5 sec) 
Heartbeat CPU 0 instructions: 190000003 cycles: 314481780 heartbeat IPC: 0.483849 cumulative IPC: 0.485766 (Simulation time: 0 hr 21 min 9 sec) 
Heartbeat CPU 0 instructions: 200000000 cycles: 335005747 heartbeat IPC: 0.487235 cumulative IPC: 0.485864 (Simulation time: 0 hr 22 min 13 sec) 
Heartbeat CPU 0 instructions: 210000002 cycles: 355608673 heartbeat IPC: 0.485368 cumulative IPC: 0.485833 (Simulation time: 0 hr 23 min 26 sec) 
Heartbeat CPU 0 instructions: 220000000 cycles: 376309084 heartbeat IPC: 0.483082 cumulative IPC: 0.48567 (Simulation time: 0 hr 24 min 36 sec) 
Heartbeat CPU 0 instructions: 230000003 cycles: 396939309 heartbeat IPC: 0.484726 cumulative IPC: 0.485617 (Simulation time: 0 hr 25 min 45 sec) 
Heartbeat CPU 0 instructions: 240000000 cycles: 417538929 heartbeat IPC: 0.485446 cumulative IPC: 0.485608 (Simulation time: 0 hr 26 min 51 sec) 
Heartbeat CPU 0 instructions: 250000000 cycles: 438165003 heartbeat IPC: 0.484823 cumulative IPC: 0.485569 (Simulation time: 0 hr 27 min 53 sec) 
Finished CPU 0 instructions: 200000000 cycles: 411887909 cumulative IPC: 0.485569 (Simulation time: 0 hr 27 min 53 sec) 
 Instruction ID: 250000378

ChampSim completed all CPUs

Region of Interest Statistics

CPU 0 cumulative IPC: 0.485569 instructions: 200000000 cycles: 411887909
ITLB SPEC fills:          0  NON-SPEC fills:          0
ITLB Test counter :          0
ITLB Leapfrog:          0
ITLB MSHR merge:          0
ITLB TOTAL     ACCESS:   43358562  HIT:   43358562  MISS:          0  HIT %:        100  MISS %:          0   MPKI: 0
ITLB LOAD TRANSLATION NON_SPEC    ACCESS:   43358562  HIT:   43358562  MISS:          0  HIT %:        100  MISS %:          0   MPKI: 0
ITLB PREFETCH  REQUESTED:          0  ISSUED:          0  USEFUL:          0  USELESS:          0
ITLB USEFUL LOAD PREFETCHES:          0 PREFETCH ISSUED TO LOWER LEVEL:          0  ACCURACY: -nan
ITLB TIMELY PREFETCHES:          0 LATE PREFETCHES: 0 DROPPED PREFETCHES: 0
ITLB COMMIT LATE PREFETCHES: 0 NORMAL LATE: 0 MISSED OPPORTUNITY: 0 UNCOVERED: 0
ITLB PREFETCHES SAME FILL-ORIGIN LEVEL: 0 DIFFERENT FILL-ORIGIN LEVEL: 0
ITLB AVERAGE MISS LATENCY: -nan cycles
ITLB AVERAGE MISS LATENCY LOAD: -nan cycles
ITLB AVERAGE MISS LATENCY PREFETCH: -nan cycles
ITLB AVERAGE MSHR OCCUPANCY: 0
ITLB MSHR FULL: 0
ITLB RQ	ACCESS:   47092530	FORWARD:          0	MERGED:    3733968	TO_CACHE:   43358562

DTLB SPEC fills:          0  NON-SPEC fills:          0
DTLB Test counter :          0
DTLB Leapfrog:          0
DTLB MSHR merge:          0
DTLB TOTAL     ACCESS:   56588994  HIT:   56522846  MISS:      66148  HIT %:    99.8831  MISS %:   0.116892   MPKI: 0.33074
DTLB LOAD TRANSLATION NON_SPEC    ACCESS:   56588994  HIT:   56522846  MISS:      66148  HIT %:    99.8831  MISS %:   0.116892   MPKI: 0.33074
DTLB PREFETCH  REQUESTED:          0  ISSUED:          0  USEFUL:          0  USELESS:          0
DTLB USEFUL LOAD PREFETCHES:          0 PREFETCH ISSUED TO LOWER LEVEL:          0  ACCURACY: -nan
DTLB TIMELY PREFETCHES:          0 LATE PREFETCHES: 0 DROPPED PREFETCHES: 0
DTLB COMMIT LATE PREFETCHES: 0 NORMAL LATE: 0 MISSED OPPORTUNITY: 0 UNCOVERED: 0
DTLB PREFETCHES SAME FILL-ORIGIN LEVEL: 0 DIFFERENT FILL-ORIGIN LEVEL: 0
DTLB AVERAGE MISS LATENCY: 179.42 cycles
DTLB AVERAGE MISS LATENCY LOAD: -nan cycles
DTLB AVERAGE MISS LATENCY PREFETCH: -nan cycles
DTLB AVERAGE MSHR OCCUPANCY: 0.00249849
DTLB MSHR FULL: 0
DTLB RQ	ACCESS:   59905305	FORWARD:          0	MERGED:    3313466	TO_CACHE:   56591839

STLB SPEC fills:          0  NON-SPEC fills:          0
STLB Test counter :          0
STLB Leapfrog:          0
STLB MSHR merge:          0
STLB TOTAL     ACCESS:    8731734  HIT:    8670823  MISS:      60911  HIT %:    99.3024  MISS %:   0.697582   MPKI: 0.304555
STLB LOAD TRANSLATION NON_SPEC    ACCESS:      66148  HIT:       5328  MISS:      60820  HIT %:    8.05467  MISS %:    91.9453   MPKI: 0.3041
STLB TRANSLATION FROM L1D PREFETCHER NON_SPEC    ACCESS:    8665586  HIT:    8665495  MISS:         91  HIT %:    99.9989  MISS %: 0.00105013   MPKI: 0.000455
STLB PREFETCH  REQUESTED:          0  ISSUED:          0  USEFUL:         80  USELESS:         10
STLB USEFUL LOAD PREFETCHES:         80 PREFETCH ISSUED TO LOWER LEVEL:          0  ACCURACY: inf
STLB TIMELY PREFETCHES:         80 LATE PREFETCHES: 28285 DROPPED PREFETCHES: 667961
STLB COMMIT LATE PREFETCHES: 0 NORMAL LATE: 28285 MISSED OPPORTUNITY: 0 UNCOVERED: 18446744073709523331
STLB PREFETCHES SAME FILL-ORIGIN LEVEL: 0 DIFFERENT FILL-ORIGIN LEVEL: 0
STLB AVERAGE MISS LATENCY: 188.117 cycles
STLB AVERAGE MISS LATENCY LOAD: -nan cycles
STLB AVERAGE MISS LATENCY PREFETCH: -nan cycles
STLB AVERAGE MSHR OCCUPANCY: 0.113026
STLB MSHR FULL: 0
STLB RQ	ACCESS:   42233572	FORWARD:          0	MERGED:   32363768	TO_CACHE:    9869804

STLB Hit, L1D data hit: 0
STLB Hit, L2C data hit: 0
STLB Hit, LLC data hit: 0
STLB Hit, LLC data miss: 0
STLB STLB hints to L2: 0
L0D SPEC fills:   17482100  NON-SPEC fills:          0
L0D TimeGuard Request with older TS:     298918 Restricted eviction:      19702 read:    1281111
L0D Test counter :          0
L0D Leapfrog:          0
L0D MSHR merge:    1538448
L0D TOTAL     ACCESS:   38955846  HIT:    6701497  MISS:   32254349  HIT %:    17.2028  MISS %:    82.7972   MPKI: 161.272
L0D LOAD      TOTAL       ACCESS:   38955846  HIT:    6701497  MISS:   32254349  HIT %:    17.2028  MISS %:    82.7972   MPKI: 161.272
L0D LOAD      NON_SPEC    ACCESS:   14869979  HIT:     117432  MISS:   14752547  HIT %:   0.789725  MISS %:    99.2103   MPKI: 73.7627
L0D LOAD      SPEC        ACCESS:   24085867  HIT:    6584065  MISS:   17501802  HIT %:    27.3358  MISS %:    72.6642   MPKI: 87.509
L0D PREFETCH  REQUESTED:          0  ISSUED:          0  USEFUL:          0  USELESS:          0
L0D USEFUL LOAD PREFETCHES:          0 PREFETCH ISSUED TO LOWER LEVEL:          0  ACCURACY: -nan
L0D TIMELY PREFETCHES:          0 LATE PREFETCHES: 0 DROPPED PREFETCHES: 0
L0D COMMIT LATE PREFETCHES: 0 NORMAL LATE: 0 MISSED OPPORTUNITY: 0 UNCOVERED: 32254349
L0D PREFETCHES SAME FILL-ORIGIN LEVEL: 0 DIFFERENT FILL-ORIGIN LEVEL: 0
L0D AVERAGE MISS LATENCY: 5.95735 cycles
L0D AVERAGE MISS LATENCY LOAD: 5.95735 cycles
L0D AVERAGE MISS LATENCY PREFETCH: -nan cycles
L0D AVERAGE MSHR OCCUPANCY: 0.630627
L0D MSHR FULL: 0
L0D RQ	ACCESS:   55591734	FORWARD:          0	MERGED:   15097442	TO_CACHE:   40494292
L0D WQ	ACCESS:   19411013	FORWARD:          0	MERGED:          0	TO_CACHE:   19411013

L1D SPEC fills:          0  NON-SPEC fills:      92589
L1D Test counter :          0
L1D Leapfrog:          0
L1D MSHR merge:      71572
L1D TOTAL     ACCESS:  109559215  HIT:  103873670  MISS:    5685545  HIT %:    94.8105  MISS %:    5.18947   MPKI: 28.4277
L1D LOAD      TOTAL       ACCESS:   32253929  HIT:   31060326  MISS:    1193603  HIT %:    96.2994  MISS %:    3.70064   MPKI: 5.96802
L1D LOAD      NON_SPEC    ACCESS:   14752544  HIT:   14659955  MISS:      92589  HIT %:    99.3724  MISS %:   0.627614   MPKI: 0.462945
L1D LOAD      SPEC        ACCESS:   17501385  HIT:   16400371  MISS:    1101014  HIT %:     93.709  MISS %:    6.29101   MPKI: 5.50507
L1D RFO       NON_SPEC    ACCESS:   19409794  HIT:   19408190  MISS:       1604  HIT %:    99.9917  MISS %: 0.00826387   MPKI: 0.00802
L1D PREFETCH  NON_SPEC    ACCESS:   28657351  HIT:   25165605  MISS:    3491746  HIT %:    87.8155  MISS %:    12.1845   MPKI: 17.4587
L1D COMMIT LOAD NON_SPEC    ACCESS:   11970907  HIT:   11969282  MISS:       1625  HIT %:    99.9864  MISS %:  0.0135746   MPKI: 0.008125
L1D COMMIT WRITE NON_SPEC    ACCESS:   17267234  HIT:   16270267  MISS:     996967  HIT %:    94.2262  MISS %:    5.77375   MPKI: 4.98484
L1D PREFETCH  REQUESTED:   53940806  ISSUED:   53482571  USEFUL:    3392602  USELESS:      99130
L1D USEFUL LOAD PREFETCHES:    3392602 PREFETCH ISSUED TO LOWER LEVEL:   13119803  ACCURACY: 25.8586
L1D TIMELY PREFETCHES:    3392602 LATE PREFETCHES: 71154 DROPPED PREFETCHES: 2589603
L1D COMMIT LATE PREFETCHES: 0 NORMAL LATE: 71154 MISSED OPPORTUNITY: 0 UNCOVERED: 1122449
L1D PREFETCHES SAME FILL-ORIGIN LEVEL: 3562900 DIFFERENT FILL-ORIGIN LEVEL: 9556903
L1D AVERAGE MISS LATENCY: 56.927 cycles
L1D AVERAGE MISS LATENCY LOAD: 25.3924 cycles
L1D AVERAGE MISS LATENCY PREFETCH: 83.9059 cycles
L1D AVERAGE MSHR OCCUPANCY: 0.609503
L1D MSHR FULL: 3.61781e-07
L1D RQ	ACCESS:   55652931	FORWARD:          0	MERGED:    9589921	TO_CACHE:   44225661
L1D WQ	ACCESS:   36723934	FORWARD:    1837349	MERGED:      46898	TO_CACHE:   36677036
L1D PQ	ACCESS:   53482571	FORWARD:          0	MERGED:   11315147	TO_CACHE:   42167424

L1D UNIQUE REGIONS ACCESSED: 0
L1D REGIONS CONFLICTS: 0
L1D Cross Page Prefetch Requests: 7794344
L1D Same Page Prefetch Requests: 57573786
L1D ROI Sum of L1D PQ occupancy: 904421738
L1D PREFETCHES PUSHED FROM L2C: 0
L1I SPEC fills:          0  NON-SPEC fills:          0
L1I Test counter :          0
L1I Leapfrog:          0
L1I MSHR merge:          0
L1I TOTAL     ACCESS:   47092529  HIT:   47092529  MISS:          0  HIT %:        100  MISS %:          0   MPKI: 0
L1I LOAD      TOTAL       ACCESS:   47092529  HIT:   47092529  MISS:          0  HIT %:        100  MISS %:          0   MPKI: 0
L1I LOAD      NON_SPEC    ACCESS:   47092529  HIT:   47092529  MISS:          0  HIT %:        100  MISS %:          0   MPKI: 0
L1I PREFETCH  REQUESTED:          0  ISSUED:          0  USEFUL:          0  USELESS:          0
L1I USEFUL LOAD PREFETCHES:          0 PREFETCH ISSUED TO LOWER LEVEL:          0  ACCURACY: -nan
L1I TIMELY PREFETCHES:          0 LATE PREFETCHES: 0 DROPPED PREFETCHES: 0
L1I COMMIT LATE PREFETCHES: 0 NORMAL LATE: 0 MISSED OPPORTUNITY: 0 UNCOVERED: 0
L1I PREFETCHES SAME FILL-ORIGIN LEVEL: 0 DIFFERENT FILL-ORIGIN LEVEL: 0
L1I AVERAGE MISS LATENCY: -nan cycles
L1I AVERAGE MISS LATENCY LOAD: -nan cycles
L1I AVERAGE MISS LATENCY PREFETCH: -nan cycles
L1I AVERAGE MSHR OCCUPANCY: 0
L1I MSHR FULL: 0
L1I RQ	ACCESS:   74384078	FORWARD:          0	MERGED:   27291548	TO_CACHE:   47092530

BTB SPEC fills:          0  NON-SPEC fills:          0
BTB Test counter :          0
BTB Leapfrog:          0
BTB MSHR merge:          0
BTB TOTAL     ACCESS:   32765954  HIT:   32765925  MISS:         29  HIT %:    99.9999  MISS %: 8.85065e-05   MPKI: 0.000145
BTB BRANCH_DIRECT_JUMP	ACCESS:    4318196  HIT:    4318187  MISS:          9
BTB BRANCH_INDIRECT	ACCESS:          0  HIT:          0  MISS:          0
BTB BRANCH_CONDITIONAL	ACCESS:   24127035  HIT:   24127021  MISS:         14
BTB BRANCH_DIRECT_CALL	ACCESS:    2160361  HIT:    2160358  MISS:          3
BTB BRANCH_INDIRECT_CALL	ACCESS:          0  HIT:          0  MISS:          0
BTB BRANCH_RETURN	ACCESS:    2160362  HIT:    2160359  MISS:          3
BTB BRANCH_OTHER ACCESS:          0  HIT:          0  MISS:          0

L2C SPEC fills:          0  NON-SPEC fills:      20995
L2C Test counter :          0
L2C Leapfrog:          0
L2C MSHR merge:       1325
L2C TOTAL     ACCESS:   21057146  HIT:   17337434  MISS:    3719712  HIT %:    82.3352  MISS %:    17.6648   MPKI: 18.5986
L2C LOAD      TOTAL       ACCESS:    1122424  HIT:    1059975  MISS:      62449  HIT %:    94.4362  MISS %:    5.56376   MPKI: 0.312245
L2C LOAD      NON_SPEC    ACCESS:      47036  HIT:      26041  MISS:      20995  HIT %:     55.364  MISS %:     44.636   MPKI: 0.104975
L2C LOAD      SPEC        ACCESS:    1075388  HIT:    1033934  MISS:      41454  HIT %:    96.1452  MISS %:    3.85479   MPKI: 0.20727
L2C RFO       NON_SPEC    ACCESS:       1604  HIT:          2  MISS:       1602  HIT %:   0.124688  MISS %:    99.8753   MPKI: 0.00801
L2C PREFETCH  NON_SPEC    ACCESS:   12090009  HIT:    8499420  MISS:    3590589  HIT %:    70.3012  MISS %:    29.6988   MPKI: 17.9529
L2C WRITEBACK NON_SPEC    ACCESS:       2505  HIT:       2505  MISS:          0  HIT %:        100  MISS %:          0   MPKI: 0
L2C CLEAN_EVICTION NON_SPEC    ACCESS:    4055465  HIT:    4002798  MISS:      52667  HIT %:    98.7013  MISS %:    1.29867   MPKI: 0.263335
L2C COMMIT LOAD NON_SPEC    ACCESS:       1623  HIT:       1587  MISS:         36  HIT %:    97.7819  MISS %:    2.21811   MPKI: 0.00018
L2C LOAD TRANSLATION NON_SPEC    ACCESS:     303689  HIT:     299330  MISS:       4359  HIT %:    98.5647  MISS %:    1.43535   MPKI: 0.021795
L2C TRANSLATION FROM L1D PREFETCHER NON_SPEC    ACCESS:    3479827  HIT:    3471817  MISS:       8010  HIT %:    99.7698  MISS %:   0.230184   MPKI: 0.04005
L2C PREFETCH  REQUESTED:          0  ISSUED:          0  USEFUL:      68343  USELESS:    3530288
L2C USEFUL LOAD PREFETCHES:      68343 PREFETCH ISSUED TO LOWER LEVEL:    3591915  ACCURACY: 1.90269
L2C TIMELY PREFETCHES:      68343 LATE PREFETCHES: 1325 DROPPED PREFETCHES: 0
L2C COMMIT LATE PREFETCHES: 0 NORMAL LATE: 1325 MISSED OPPORTUNITY: 0 UNCOVERED: 61124
L2C PREFETCHES SAME FILL-ORIGIN LEVEL: 2396298 DIFFERENT FILL-ORIGIN LEVEL: 0
L2C AVERAGE MISS LATENCY: 183.909 cycles
L2C AVERAGE MISS LATENCY LOAD: 173.638 cycles
L2C AVERAGE MISS LATENCY PREFETCH: 186.744 cycles
L2C AVERAGE MSHR OCCUPANCY: 0.657132
L2C MSHR FULL: 0
L2C RQ	ACCESS:    4909194	FORWARD:          0	MERGED:          0	TO_CACHE:    4909167
L2C WQ	ACCESS:    4057970	FORWARD:         88	MERGED:          0	TO_CACHE:    4057970
L2C PQ	ACCESS:   13119803	FORWARD:          0	MERGED:          7	TO_CACHE:   13119735

L2C Instructions Evicting Data 0
L2C Translations Evicting Data 12338
L2C Data Evicting Data 3601060
L2C Instructions Evicting Instructions 0
L2C Translations Evicting Instructions 0
L2C Data Evicting Instructions 0
L2C Instructions Evicting Translations 0
L2C Translations Evicting Translations 31
L2C Data Evicting Translations 12162
L2C Dense regions hint from L2: 0
PSCL5 SPEC fills:          0  NON-SPEC fills:          0
PSCL5 Test counter :          0
PSCL5 Leapfrog:          0
PSCL5 MSHR merge:          0
PSCL5 TOTAL     ACCESS:          0  HIT:          0  MISS:          0  HIT %:       -nan  MISS %:       -nan   MPKI: 0
PSCL5 PREFETCH  REQUESTED:          0  ISSUED:          0  USEFUL:          0  USELESS:          0
PSCL5 USEFUL LOAD PREFETCHES:          0 PREFETCH ISSUED TO LOWER LEVEL:          0  ACCURACY: -nan
PSCL5 TIMELY PREFETCHES:          0 LATE PREFETCHES: 0 DROPPED PREFETCHES: 0
PSCL5 COMMIT LATE PREFETCHES: 0 NORMAL LATE: 0 MISSED OPPORTUNITY: 0 UNCOVERED: 0
PSCL5 PREFETCHES SAME FILL-ORIGIN LEVEL: 0 DIFFERENT FILL-ORIGIN LEVEL: 0

PSCL4 SPEC fills:          0  NON-SPEC fills:          0
PSCL4 Test counter :          0
PSCL4 Leapfrog:          0
PSCL4 MSHR merge:          0
PSCL4 TOTAL     ACCESS:          0  HIT:          0  MISS:          0  HIT %:       -nan  MISS %:       -nan   MPKI: 0
PSCL4 PREFETCH  REQUESTED:          0  ISSUED:          0  USEFUL:          0  USELESS:          0
PSCL4 USEFUL LOAD PREFETCHES:          0 PREFETCH ISSUED TO LOWER LEVEL:          0  ACCURACY: -nan
PSCL4 TIMELY PREFETCHES:          0 LATE PREFETCHES: 0 DROPPED PREFETCHES: 0
PSCL4 COMMIT LATE PREFETCHES: 0 NORMAL LATE: 0 MISSED OPPORTUNITY: 0 UNCOVERED: 0
PSCL4 PREFETCHES SAME FILL-ORIGIN LEVEL: 0 DIFFERENT FILL-ORIGIN LEVEL: 0

PSCL3 SPEC fills:          0  NON-SPEC fills:          0
PSCL3 Test counter :          0
PSCL3 Leapfrog:          0
PSCL3 MSHR merge:          0
PSCL3 TOTAL     ACCESS:          0  HIT:          0  MISS:          0  HIT %:       -nan  MISS %:       -nan   MPKI: 0
PSCL3 PREFETCH  REQUESTED:          0  ISSUED:          0  USEFUL:          0  USELESS:          0
PSCL3 USEFUL LOAD PREFETCHES:          0 PREFETCH ISSUED TO LOWER LEVEL:          0  ACCURACY: -nan
PSCL3 TIMELY PREFETCHES:          0 LATE PREFETCHES: 0 DROPPED PREFETCHES: 0
PSCL3 COMMIT LATE PREFETCHES: 0 NORMAL LATE: 0 MISSED OPPORTUNITY: 0 UNCOVERED: 0
PSCL3 PREFETCHES SAME FILL-ORIGIN LEVEL: 0 DIFFERENT FILL-ORIGIN LEVEL: 0

PSCL2 SPEC fills:          0  NON-SPEC fills:          0
PSCL2 Test counter :          0
PSCL2 Leapfrog:          0
PSCL2 MSHR merge:          0
PSCL2 TOTAL     ACCESS:          0  HIT:          0  MISS:          0  HIT %:       -nan  MISS %:       -nan   MPKI: 0
PSCL2 PREFETCH  REQUESTED:          0  ISSUED:          0  USEFUL:          0  USELESS:          0
PSCL2 USEFUL LOAD PREFETCHES:          0 PREFETCH ISSUED TO LOWER LEVEL:          0  ACCURACY: -nan
PSCL2 TIMELY PREFETCHES:          0 LATE PREFETCHES: 0 DROPPED PREFETCHES: 0
PSCL2 COMMIT LATE PREFETCHES: 0 NORMAL LATE: 0 MISSED OPPORTUNITY: 0 UNCOVERED: 0
PSCL2 PREFETCHES SAME FILL-ORIGIN LEVEL: 0 DIFFERENT FILL-ORIGIN LEVEL: 0

LLC SPEC fills:          0  NON-SPEC fills:      20191
LLC Test counter :          0
LLC Leapfrog:          0
LLC MSHR merge:          0
LLC TOTAL     ACCESS:    6822066  HIT:    3124805  MISS:    3697261  HIT %:    45.8044  MISS %:    54.1956   MPKI: 18.4863
LLC LOAD      TOTAL       ACCESS:      61124  HIT:        708  MISS:      60416  HIT %:     1.1583  MISS %:    98.8417   MPKI: 0.30208
LLC LOAD      NON_SPEC    ACCESS:      20486  HIT:        295  MISS:      20191  HIT %:    1.44001  MISS %:      98.56   MPKI: 0.100955
LLC LOAD      SPEC        ACCESS:      40638  HIT:        413  MISS:      40225  HIT %:    1.01629  MISS %:    98.9837   MPKI: 0.201125
LLC RFO       NON_SPEC    ACCESS:       1602  HIT:         10  MISS:       1592  HIT %:    0.62422  MISS %:    99.3758   MPKI: 0.00796
LLC PREFETCH  NON_SPEC    ACCESS:    3591914  HIT:      13671  MISS:    3578243  HIT %:   0.380605  MISS %:    99.6194   MPKI: 17.8912
LLC WRITEBACK NON_SPEC    ACCESS:       1604  HIT:       1604  MISS:          0  HIT %:        100  MISS %:          0   MPKI: 0
LLC CLEAN_EVICTION NON_SPEC    ACCESS:    3153417  HIT:    3107754  MISS:      45663  HIT %:     98.552  MISS %:    1.44805   MPKI: 0.228315
LLC COMMIT LOAD NON_SPEC    ACCESS:         36  HIT:          4  MISS:         32  HIT %:    11.1111  MISS %:    88.8889   MPKI: 0.00016
LLC LOAD TRANSLATION NON_SPEC    ACCESS:       4359  HIT:        645  MISS:       3714  HIT %:     14.797  MISS %:     85.203   MPKI: 0.01857
LLC TRANSLATION FROM L1D PREFETCHER NON_SPEC    ACCESS:       8010  HIT:        409  MISS:       7601  HIT %:    5.10612  MISS %:    94.8939   MPKI: 0.038005
LLC PREFETCH  REQUESTED:          0  ISSUED:          0  USEFUL:        643  USELESS:    3585230
LLC USEFUL LOAD PREFETCHES:        643 PREFETCH ISSUED TO LOWER LEVEL:    3578244  ACCURACY: 0.0179697
LLC TIMELY PREFETCHES:        643 LATE PREFETCHES: 0 DROPPED PREFETCHES: 0
LLC COMMIT LATE PREFETCHES: 0 NORMAL LATE: 0 MISSED OPPORTUNITY: 0 UNCOVERED: 60416
LLC PREFETCHES SAME FILL-ORIGIN LEVEL: 0 DIFFERENT FILL-ORIGIN LEVEL: 0
LLC AVERAGE MISS LATENCY: 155.392 cycles
LLC AVERAGE MISS LATENCY LOAD: 153.879 cycles
LLC AVERAGE MISS LATENCY PREFETCH: 157.319 cycles
LLC AVERAGE MSHR OCCUPANCY: 0.44827
LLC MSHR FULL: 0
LLC RQ	ACCESS:      75131	FORWARD:          0	MERGED:          0	TO_CACHE:      75131
LLC WQ	ACCESS:    3155022	FORWARD:          0	MERGED:          0	TO_CACHE:    3155022
LLC PQ	ACCESS:    3591915	FORWARD:          0	MERGED:          0	TO_CACHE:    3591915

LLC Dense regions hint to LLC: 0

RAW hits: 4373
Loads Generated: 55596107
Loads sent to L1D: 55591734
Stores Generated: 19411013
Stores sent to L1D: 19411013
Major fault: 0 Minor fault: 76297
Allocated PAGES: 76297
Total Load insts: 69476630
Total Non-spec loads: 17557239
Percentage of speculative loads: 74.7293

LeapFrogging counter: 0
Commit hits: 17312921 miss: 23398582
Commit hit %: 42.5259 miss %: 57.4741
Commits not translated: 0
Loads retired: 1193603
Stores retired: 19411013
Cache fills: 1193603
L1D response latency: 25.3924 cycles
Load retirement latency: 83.7385 cycles
OOO test counter: 0
Discarded buffer inserts: 17312921 hits: 41025 hit %: 0.236962
Filter prediction accuracy: -nan
LATENCY_FILL: 24.6996 1193571

DRAM Statistics
 CHANNEL 0
 RQ ROW_BUFFER_HIT:     939372  ROW_BUFFER_MISS:    2712226
 DBUS_CONGESTED:      26585
 WQ ROW_BUFFER_HIT:    1158022  ROW_BUFFER_MISS:    1993182  FULL:          0

 AVG_CONGESTED_CYCLE: 4
 All warmup complete: 2
Channel 0 Bank busy for read cycles: 0
Channel 0 Bank busy for write cycles: 0
Channel 0
Rank 0
0banks busy for read cycles: 96044336
0banks busy for write cycles: 191375
1banks busy for read cycles: 105132681
1banks busy for write cycles: 19323389
2banks busy for read cycles: 48322495
2banks busy for write cycles: 12541648
3banks busy for read cycles: 22017274
3banks busy for write cycles: 8774598
4banks busy for read cycles: 12687179
4banks busy for write cycles: 7259871
5banks busy for read cycles: 6598129
5banks busy for write cycles: 6794182
6banks busy for read cycles: 4037769
6banks busy for write cycles: 7334465
7banks busy for read cycles: 2871161
7banks busy for write cycles: 10838183
8banks busy for read cycles: 7267807
8banks busy for write cycles: 33851368

CPU 0 Branch Prediction Accuracy: 99.9621% MPKI: 0.097185 Average ROB Occupancy at Mispredict: 311.414
Branch types
NOT_BRANCH: 148719231 74.3596%
BRANCH_DIRECT_JUMP: 4318196 2.1591%
BRANCH_INDIRECT: 0 0%
BRANCH_CONDITIONAL: 42641844 21.3209%
BRANCH_DIRECT_CALL: 2160361 1.08018%
BRANCH_INDIRECT_CALL: 0 0%
BRANCH_RETURN: 2160362 1.08018%
BRANCH_OTHER: 0 0%

DRAM PAGES: 1048576
Allocated PAGES: 76297
