
*** ChampSim Multicore Out-of-Order Simulator ***

Warmup Instructions: 50000000
Simulation Instructions: 200000000
Number of CPUs: 1
LLC sets: 2048
LLC ways: 16
L0D sets: 16
L0D ways: 2
ROB size: 352
LQ size: 128
SQ size: 72
Secure Berti: OFF
Berti: OFF
Berti Fill: OFF
On commit prefetching: OFF
Hit-based filter: OFF
Time-guarding: ON
Free-slotting: ON
Leap-frogging: ON
Train prefetcher on L0D bypass: OFF
No translation penalty for prefetchers: OFF
Prefetch to L0D only: OFF
Prefetch to L1D only: OFF
Clean evictions: ON
Commit loads: ON
Commit write: ON
Fill commit loads to L2C, LLC: ON
DRAM IO FREQUENCY: 6400
ROB SIZE: 352
Off-chip DRAM Size: 4096 MB Channels: 1 Width: 64-bit Data Rate: 6400 MT/s
CPU 0 runs /home/sumon/secure_berti/GhostMinion/../../traces/spec/603.bwaves_s-2931B.champsimtrace.xz
.xz
BTB has LRU replacement policy
ITLB has LRU replacement policy
DTLB has LRU replacement policy
STLB has LRU replacement policy
L1I has LRU replacement policy
L0D has LRU replacement policy
History Sets: 8
History Ways: 16
BERTI Size: 16
BERTI Stride Size: 16
L1D has LRU replacement policy
L2C has LRU replacement policy
LLC has LRU replacement policy
Heartbeat CPU 0 instructions: 10000003 cycles: 3151101 heartbeat IPC: 3.17349 cumulative IPC: 3.17349 (Simulation time: 0 hr 0 min 41 sec) 
Heartbeat CPU 0 instructions: 20000003 cycles: 6301319 heartbeat IPC: 3.17438 cumulative IPC: 3.17394 (Simulation time: 0 hr 1 min 21 sec) 
Heartbeat CPU 0 instructions: 30000003 cycles: 9451935 heartbeat IPC: 3.17398 cumulative IPC: 3.17395 (Simulation time: 0 hr 2 min 1 sec) 
Heartbeat CPU 0 instructions: 40000002 cycles: 12602997 heartbeat IPC: 3.17353 cumulative IPC: 3.17385 (Simulation time: 0 hr 2 min 41 sec) 
Heartbeat CPU 0 instructions: 50000003 cycles: 15753974 heartbeat IPC: 3.17362 cumulative IPC: 3.1738 (Simulation time: 0 hr 3 min 21 sec) 

Warmup complete CPU 0 instructions: 50000003 cycles: 15753974 (Simulation time: 0 hr 3 min 21 sec) 

Heartbeat CPU 0 instructions: 60000002 cycles: 24207833 heartbeat IPC: 1.18289 cumulative IPC: 1.18289 (Simulation time: 0 hr 4 min 6 sec) 
Heartbeat CPU 0 instructions: 70000002 cycles: 32696706 heartbeat IPC: 1.17801 cumulative IPC: 1.18045 (Simulation time: 0 hr 4 min 50 sec) 
Heartbeat CPU 0 instructions: 80000003 cycles: 41183826 heartbeat IPC: 1.17826 cumulative IPC: 1.17972 (Simulation time: 0 hr 5 min 34 sec) 
Heartbeat CPU 0 instructions: 90000003 cycles: 49657392 heartbeat IPC: 1.18014 cumulative IPC: 1.17982 (Simulation time: 0 hr 6 min 19 sec) 
Heartbeat CPU 0 instructions: 100000002 cycles: 58135215 heartbeat IPC: 1.17955 cumulative IPC: 1.17977 (Simulation time: 0 hr 7 min 3 sec) 
Heartbeat CPU 0 instructions: 110000000 cycles: 66604989 heartbeat IPC: 1.18067 cumulative IPC: 1.17992 (Simulation time: 0 hr 7 min 47 sec) 
Heartbeat CPU 0 instructions: 120000000 cycles: 75085081 heartbeat IPC: 1.17923 cumulative IPC: 1.17982 (Simulation time: 0 hr 8 min 32 sec) 
Heartbeat CPU 0 instructions: 130000002 cycles: 83575389 heartbeat IPC: 1.17781 cumulative IPC: 1.17957 (Simulation time: 0 hr 9 min 16 sec) 
Heartbeat CPU 0 instructions: 140000002 cycles: 92070020 heartbeat IPC: 1.17721 cumulative IPC: 1.17931 (Simulation time: 0 hr 10 min 0 sec) 
Heartbeat CPU 0 instructions: 150000001 cycles: 100545976 heartbeat IPC: 1.17981 cumulative IPC: 1.17936 (Simulation time: 0 hr 10 min 45 sec) 
Heartbeat CPU 0 instructions: 160000001 cycles: 109025538 heartbeat IPC: 1.17931 cumulative IPC: 1.17935 (Simulation time: 0 hr 11 min 29 sec) 
Heartbeat CPU 0 instructions: 170000003 cycles: 117505786 heartbeat IPC: 1.17921 cumulative IPC: 1.17934 (Simulation time: 0 hr 12 min 13 sec) 
Heartbeat CPU 0 instructions: 180000000 cycles: 125996915 heartbeat IPC: 1.1777 cumulative IPC: 1.17921 (Simulation time: 0 hr 12 min 58 sec) 
Heartbeat CPU 0 instructions: 190000000 cycles: 134466467 heartbeat IPC: 1.1807 cumulative IPC: 1.17932 (Simulation time: 0 hr 13 min 43 sec) 
Heartbeat CPU 0 instructions: 200000000 cycles: 142929795 heartbeat IPC: 1.18157 cumulative IPC: 1.17947 (Simulation time: 0 hr 14 min 27 sec) 
Heartbeat CPU 0 instructions: 210000003 cycles: 151409277 heartbeat IPC: 1.17932 cumulative IPC: 1.17946 (Simulation time: 0 hr 15 min 10 sec) 
Heartbeat CPU 0 instructions: 220000000 cycles: 159891379 heartbeat IPC: 1.17895 cumulative IPC: 1.17943 (Simulation time: 0 hr 15 min 53 sec) 
Heartbeat CPU 0 instructions: 230000000 cycles: 168379608 heartbeat IPC: 1.1781 cumulative IPC: 1.17936 (Simulation time: 0 hr 16 min 36 sec) 
Heartbeat CPU 0 instructions: 240000000 cycles: 176874944 heartbeat IPC: 1.17712 cumulative IPC: 1.17924 (Simulation time: 0 hr 17 min 18 sec) 
Heartbeat CPU 0 instructions: 250000001 cycles: 185349566 heartbeat IPC: 1.17999 cumulative IPC: 1.17928 (Simulation time: 0 hr 18 min 0 sec) 
Finished CPU 0 instructions: 200000002 cycles: 169595593 cumulative IPC: 1.17928 (Simulation time: 0 hr 18 min 0 sec) 
 Instruction ID: 250000064

ChampSim completed all CPUs

Region of Interest Statistics

CPU 0 cumulative IPC: 1.17928 instructions: 200000002 cycles: 169595593
ITLB SPEC fills:          0  NON-SPEC fills:          0
ITLB Test counter :          0
ITLB Leapfrog:          0
ITLB MSHR merge:          0
ITLB TOTAL     ACCESS:   24097409  HIT:   24097409  MISS:          0  HIT %:        100  MISS %:          0   MPKI: 0
ITLB LOAD TRANSLATION NON_SPEC    ACCESS:   24097409  HIT:   24097409  MISS:          0  HIT %:        100  MISS %:          0   MPKI: 0
ITLB PREFETCH  REQUESTED:          0  ISSUED:          0  USEFUL:          0  USELESS:          0
ITLB USEFUL LOAD PREFETCHES:          0 PREFETCH ISSUED TO LOWER LEVEL:          0  ACCURACY: -nan
ITLB TIMELY PREFETCHES:          0 LATE PREFETCHES: 0 DROPPED PREFETCHES: 0
ITLB COMMIT LATE PREFETCHES: 0 NORMAL LATE: 0 MISSED OPPORTUNITY: 0 UNCOVERED: 0
ITLB PREFETCHES SAME FILL-ORIGIN LEVEL: 0 DIFFERENT FILL-ORIGIN LEVEL: 0
ITLB AVERAGE MISS LATENCY: -nan cycles
ITLB AVERAGE MISS LATENCY LOAD: -nan cycles
ITLB AVERAGE MISS LATENCY PREFETCH: -nan cycles
ITLB AVERAGE MSHR OCCUPANCY: 0
ITLB MSHR FULL: 0
ITLB RQ	ACCESS:   27861900	FORWARD:          0	MERGED:    3764491	TO_CACHE:   24097409

DTLB SPEC fills:          0  NON-SPEC fills:          0
DTLB Test counter :          0
DTLB Leapfrog:          0
DTLB MSHR merge:          0
DTLB TOTAL     ACCESS:   54333033  HIT:   53897437  MISS:     435596  HIT %:    99.1983  MISS %:   0.801715   MPKI: 2.17798
DTLB LOAD TRANSLATION NON_SPEC    ACCESS:   54333033  HIT:   53897437  MISS:     435596  HIT %:    99.1983  MISS %:   0.801715   MPKI: 2.17798
DTLB PREFETCH  REQUESTED:          0  ISSUED:          0  USEFUL:          0  USELESS:          0
DTLB USEFUL LOAD PREFETCHES:          0 PREFETCH ISSUED TO LOWER LEVEL:          0  ACCURACY: -nan
DTLB TIMELY PREFETCHES:          0 LATE PREFETCHES: 0 DROPPED PREFETCHES: 0
DTLB COMMIT LATE PREFETCHES: 0 NORMAL LATE: 0 MISSED OPPORTUNITY: 0 UNCOVERED: 0
DTLB PREFETCHES SAME FILL-ORIGIN LEVEL: 0 DIFFERENT FILL-ORIGIN LEVEL: 0
DTLB AVERAGE MISS LATENCY: 54.523 cycles
DTLB AVERAGE MISS LATENCY LOAD: -nan cycles
DTLB AVERAGE MISS LATENCY PREFETCH: -nan cycles
DTLB AVERAGE MSHR OCCUPANCY: 0.0770346
DTLB MSHR FULL: 5.07382e-06
DTLB RQ	ACCESS:   82610509	FORWARD:          0	MERGED:   28213837	TO_CACHE:   54396672

STLB SPEC fills:          0  NON-SPEC fills:          0
STLB Test counter :          0
STLB Leapfrog:          0
STLB MSHR merge:          0
STLB TOTAL     ACCESS:    9976553  HIT:    9933948  MISS:      42605  HIT %:    99.5729  MISS %:   0.427051   MPKI: 0.213025
STLB LOAD TRANSLATION NON_SPEC    ACCESS:     435596  HIT:     397618  MISS:      37978  HIT %:    91.2814  MISS %:    8.71863   MPKI: 0.18989
STLB TRANSLATION FROM L1D PREFETCHER NON_SPEC    ACCESS:    9540957  HIT:    9536330  MISS:       4627  HIT %:    99.9515  MISS %:  0.0484962   MPKI: 0.023135
STLB PREFETCH  REQUESTED:          0  ISSUED:          0  USEFUL:       4627  USELESS:          0
STLB USEFUL LOAD PREFETCHES:       4627 PREFETCH ISSUED TO LOWER LEVEL:          0  ACCURACY: inf
STLB TIMELY PREFETCHES:       4627 LATE PREFETCHES: 1993 DROPPED PREFETCHES: 593121
STLB COMMIT LATE PREFETCHES: 0 NORMAL LATE: 1993 MISSED OPPORTUNITY: 0 UNCOVERED: 18446744073709549623
STLB PREFETCHES SAME FILL-ORIGIN LEVEL: 0 DIFFERENT FILL-ORIGIN LEVEL: 0
STLB AVERAGE MISS LATENCY: 477.339 cycles
STLB AVERAGE MISS LATENCY LOAD: -nan cycles
STLB AVERAGE MISS LATENCY PREFETCH: -nan cycles
STLB AVERAGE MSHR OCCUPANCY: 0.240607
STLB MSHR FULL: 0
STLB RQ	ACCESS:   54245760	FORWARD:          0	MERGED:   43670099	TO_CACHE:   10575661

STLB Hit, L1D data hit: 0
STLB Hit, L2C data hit: 0
STLB Hit, LLC data hit: 0
STLB Hit, LLC data miss: 0
STLB STLB hints to L2: 0
L0D SPEC fills:   29098402  NON-SPEC fills:          0
L0D TimeGuard Request with older TS:     156643 Restricted eviction:    1509850 read:     110811
L0D Test counter :          0
L0D Leapfrog:          0
L0D MSHR merge:    1262471
L0D TOTAL     ACCESS:   44698979  HIT:    9482066  MISS:   35216913  HIT %:    21.2132  MISS %:    78.7868   MPKI: 176.085
L0D LOAD      TOTAL       ACCESS:   44698979  HIT:    9482066  MISS:   35216913  HIT %:    21.2132  MISS %:    78.7868   MPKI: 176.085
L0D LOAD      NON_SPEC    ACCESS:    5774119  HIT:    1165381  MISS:    4608738  HIT %:    20.1828  MISS %:    79.8172   MPKI: 23.0437
L0D LOAD      SPEC        ACCESS:   38924860  HIT:    8316685  MISS:   30608175  HIT %:     21.366  MISS %:     78.634   MPKI: 153.041
L0D PREFETCH  REQUESTED:          0  ISSUED:          0  USEFUL:          0  USELESS:          0
L0D USEFUL LOAD PREFETCHES:          0 PREFETCH ISSUED TO LOWER LEVEL:          0  ACCURACY: -nan
L0D TIMELY PREFETCHES:          0 LATE PREFETCHES: 0 DROPPED PREFETCHES: 0
L0D COMMIT LATE PREFETCHES: 0 NORMAL LATE: 0 MISSED OPPORTUNITY: 0 UNCOVERED: 35216913
L0D PREFETCHES SAME FILL-ORIGIN LEVEL: 0 DIFFERENT FILL-ORIGIN LEVEL: 0
L0D AVERAGE MISS LATENCY: 5.50528 cycles
L0D AVERAGE MISS LATENCY LOAD: 5.50528 cycles
L0D AVERAGE MISS LATENCY PREFETCH: -nan cycles
L0D AVERAGE MSHR OCCUPANCY: 1.08504
L0D MSHR FULL: 5.63703e-05
L0D RQ	ACCESS:   57632980	FORWARD:          0	MERGED:   11671531	TO_CACHE:   45961449
L0D WQ	ACCESS:   36649060	FORWARD:          0	MERGED:          0	TO_CACHE:   36649060

L1D SPEC fills:          0  NON-SPEC fills:       6818
L1D Test counter :          0
L1D Leapfrog:          0
L1D MSHR merge:       5838
L1D TOTAL     ACCESS:  151777983  HIT:  148518249  MISS:    3259734  HIT %:    97.8523  MISS %:     2.1477   MPKI: 16.2987
L1D LOAD      TOTAL       ACCESS:   35216141  HIT:   35114588  MISS:     101553  HIT %:    99.7116  MISS %:   0.288371   MPKI: 0.507765
L1D LOAD      NON_SPEC    ACCESS:    4608732  HIT:    4601914  MISS:       6818  HIT %:    99.8521  MISS %:   0.147937   MPKI: 0.03409
L1D LOAD      SPEC        ACCESS:   30607409  HIT:   30512674  MISS:      94735  HIT %:    99.6905  MISS %:   0.309517   MPKI: 0.473675
L1D RFO       NON_SPEC    ACCESS:   29416320  HIT:   28211876  MISS:    1204444  HIT %:    95.9055  MISS %:    4.09448   MPKI: 6.02222
L1D PREFETCH  NON_SPEC    ACCESS:   46900889  HIT:   45055981  MISS:    1844908  HIT %:    96.0664  MISS %:    3.93363   MPKI: 9.22454
L1D COMMIT LOAD NON_SPEC    ACCESS:   11580278  HIT:   11573899  MISS:       6379  HIT %:    99.9449  MISS %:   0.055085   MPKI: 0.031895
L1D COMMIT WRITE NON_SPEC    ACCESS:   28664355  HIT:   28561905  MISS:     102450  HIT %:    99.6426  MISS %:   0.357413   MPKI: 0.51225
L1D PREFETCH  REQUESTED:  113199218  ISSUED:   53957601  USEFUL:    1840504  USELESS:       4415
L1D USEFUL LOAD PREFETCHES:    1840504 PREFETCH ISSUED TO LOWER LEVEL:    5206169  ACCURACY: 35.3524
L1D TIMELY PREFETCHES:    1840504 LATE PREFETCHES: 5067 DROPPED PREFETCHES: 1980010
L1D COMMIT LATE PREFETCHES: 0 NORMAL LATE: 5067 MISSED OPPORTUNITY: 0 UNCOVERED: 96486
L1D PREFETCHES SAME FILL-ORIGIN LEVEL: 1849980 DIFFERENT FILL-ORIGIN LEVEL: 3356189
L1D AVERAGE MISS LATENCY: 467.563 cycles
L1D AVERAGE MISS LATENCY LOAD: 107.497 cycles
L1D AVERAGE MISS LATENCY PREFETCH: 280.004 cycles
L1D AVERAGE MSHR OCCUPANCY: 9.15907
L1D MSHR FULL: 0.0646451
L1D RQ	ACCESS:   57999369	FORWARD:          0	MERGED:   10915583	TO_CACHE:   46797432
L1D WQ	ACCESS:   65485102	FORWARD:     286354	MERGED:    1095639	TO_CACHE:   64389463
L1D PQ	ACCESS:   53957601	FORWARD:          0	MERGED:     147437	TO_CACHE:   53810164

L1D UNIQUE REGIONS ACCESSED: 0
L1D REGIONS CONFLICTS: 0
L1D Cross Page Prefetch Requests: 3491145
L1D Same Page Prefetch Requests: 63149501
L1D ROI Sum of L1D PQ occupancy: 1372074227
L1D PREFETCHES PUSHED FROM L2C: 0
L1I SPEC fills:          0  NON-SPEC fills:          0
L1I Test counter :          0
L1I Leapfrog:          0
L1I MSHR merge:          0
L1I TOTAL     ACCESS:   27861898  HIT:   27861898  MISS:          0  HIT %:        100  MISS %:          0   MPKI: 0
L1I LOAD      TOTAL       ACCESS:   27861898  HIT:   27861898  MISS:          0  HIT %:        100  MISS %:          0   MPKI: 0
L1I LOAD      NON_SPEC    ACCESS:   27861898  HIT:   27861898  MISS:          0  HIT %:        100  MISS %:          0   MPKI: 0
L1I PREFETCH  REQUESTED:          0  ISSUED:          0  USEFUL:          0  USELESS:          0
L1I USEFUL LOAD PREFETCHES:          0 PREFETCH ISSUED TO LOWER LEVEL:          0  ACCURACY: -nan
L1I TIMELY PREFETCHES:          0 LATE PREFETCHES: 0 DROPPED PREFETCHES: 0
L1I COMMIT LATE PREFETCHES: 0 NORMAL LATE: 0 MISSED OPPORTUNITY: 0 UNCOVERED: 0
L1I PREFETCHES SAME FILL-ORIGIN LEVEL: 0 DIFFERENT FILL-ORIGIN LEVEL: 0
L1I AVERAGE MISS LATENCY: -nan cycles
L1I AVERAGE MISS LATENCY LOAD: -nan cycles
L1I AVERAGE MISS LATENCY PREFETCH: -nan cycles
L1I AVERAGE MSHR OCCUPANCY: 0
L1I MSHR FULL: 0
L1I RQ	ACCESS:   40725308	FORWARD:          0	MERGED:   12863408	TO_CACHE:   27861900

BTB SPEC fills:          0  NON-SPEC fills:          0
BTB Test counter :          0
BTB Leapfrog:          0
BTB MSHR merge:          0
BTB TOTAL     ACCESS:    1687994  HIT:    1687989  MISS:          5  HIT %:    99.9997  MISS %: 0.00029621   MPKI: 2.5e-05
BTB BRANCH_DIRECT_JUMP	ACCESS:          0  HIT:          0  MISS:          0
BTB BRANCH_INDIRECT	ACCESS:          0  HIT:          0  MISS:          0
BTB BRANCH_CONDITIONAL	ACCESS:    1687994  HIT:    1687989  MISS:          5
BTB BRANCH_DIRECT_CALL	ACCESS:          0  HIT:          0  MISS:          0
BTB BRANCH_INDIRECT_CALL	ACCESS:          0  HIT:          0  MISS:          0
BTB BRANCH_RETURN	ACCESS:          0  HIT:          0  MISS:          0
BTB BRANCH_OTHER ACCESS:          0  HIT:          0  MISS:          0

L2C SPEC fills:          0  NON-SPEC fills:       2625
L2C Test counter :          0
L2C Leapfrog:          0
L2C MSHR merge:        983
L2C TOTAL     ACCESS:   11795913  HIT:    8851747  MISS:    2944166  HIT %:    75.0408  MISS %:    24.9592   MPKI: 14.7208
L2C LOAD      TOTAL       ACCESS:      93060  HIT:      67746  MISS:      25314  HIT %:    72.7982  MISS %:    27.2018   MPKI: 0.12657
L2C LOAD      NON_SPEC    ACCESS:       6728  HIT:       4103  MISS:       2625  HIT %:    60.9839  MISS %:    39.0161   MPKI: 0.013125
L2C LOAD      SPEC        ACCESS:      86332  HIT:      63643  MISS:      22689  HIT %:    73.7189  MISS %:    26.2811   MPKI: 0.113445
L2C RFO       NON_SPEC    ACCESS:    1195098  HIT:       4335  MISS:    1190763  HIT %:   0.362732  MISS %:    99.6373   MPKI: 5.95381
L2C PREFETCH  NON_SPEC    ACCESS:    4204349  HIT:    2505165  MISS:    1699184  HIT %:    59.5851  MISS %:    40.4149   MPKI: 8.49592
L2C WRITEBACK NON_SPEC    ACCESS:    1205029  HIT:    1205024  MISS:          5  HIT %:    99.9996  MISS %: 0.000414928   MPKI: 2.5e-05
L2C CLEAN_EVICTION NON_SPEC    ACCESS:    1905649  HIT:    1882762  MISS:      22887  HIT %:     98.799  MISS %:    1.20101   MPKI: 0.114435
L2C COMMIT LOAD NON_SPEC    ACCESS:       5013  HIT:       4381  MISS:        632  HIT %:    87.3928  MISS %:    12.6072   MPKI: 0.00316
L2C LOAD TRANSLATION NON_SPEC    ACCESS:     189802  HIT:     186758  MISS:       3044  HIT %:    98.3962  MISS %:    1.60378   MPKI: 0.01522
L2C TRANSLATION FROM L1D PREFETCHER NON_SPEC    ACCESS:    2997913  HIT:    2995576  MISS:       2337  HIT %:     99.922  MISS %:  0.0779542   MPKI: 0.011685
L2C PREFETCH  REQUESTED:          0  ISSUED:          0  USEFUL:      56166  USELESS:    1644036
L2C USEFUL LOAD PREFETCHES:      56166 PREFETCH ISSUED TO LOWER LEVEL:    1700177  ACCURACY: 3.30354
L2C TIMELY PREFETCHES:      56166 LATE PREFETCHES: 983 DROPPED PREFETCHES: 0
L2C COMMIT LATE PREFETCHES: 0 NORMAL LATE: 983 MISSED OPPORTUNITY: 0 UNCOVERED: 24331
L2C PREFETCHES SAME FILL-ORIGIN LEVEL: 685472 DIFFERENT FILL-ORIGIN LEVEL: 0
L2C AVERAGE MISS LATENCY: 597.699 cycles
L2C AVERAGE MISS LATENCY LOAD: 347.025 cycles
L2C AVERAGE MISS LATENCY PREFETCH: 453.419 cycles
L2C AVERAGE MSHR OCCUPANCY: 8.8648
L2C MSHR FULL: 7.58773e-06
L2C RQ	ACCESS:    4495031	FORWARD:          0	MERGED:          0	TO_CACHE:    4480893
L2C WQ	ACCESS:    3110682	FORWARD:      17123	MERGED:          4	TO_CACHE:    3110678
L2C PQ	ACCESS:    5206169	FORWARD:          0	MERGED:          0	TO_CACHE:    5203184

L2C Instructions Evicting Data 0
L2C Translations Evicting Data 5380
L2C Data Evicting Data 2887868
L2C Instructions Evicting Instructions 0
L2C Translations Evicting Instructions 0
L2C Data Evicting Instructions 0
L2C Instructions Evicting Translations 0
L2C Translations Evicting Translations 1
L2C Data Evicting Translations 5336
L2C Dense regions hint from L2: 0
PSCL5 SPEC fills:          0  NON-SPEC fills:          0
PSCL5 Test counter :          0
PSCL5 Leapfrog:          0
PSCL5 MSHR merge:          0
PSCL5 TOTAL     ACCESS:          0  HIT:          0  MISS:          0  HIT %:       -nan  MISS %:       -nan   MPKI: 0
PSCL5 PREFETCH  REQUESTED:          0  ISSUED:          0  USEFUL:          0  USELESS:          0
PSCL5 USEFUL LOAD PREFETCHES:          0 PREFETCH ISSUED TO LOWER LEVEL:          0  ACCURACY: -nan
PSCL5 TIMELY PREFETCHES:          0 LATE PREFETCHES: 0 DROPPED PREFETCHES: 0
PSCL5 COMMIT LATE PREFETCHES: 0 NORMAL LATE: 0 MISSED OPPORTUNITY: 0 UNCOVERED: 0
PSCL5 PREFETCHES SAME FILL-ORIGIN LEVEL: 0 DIFFERENT FILL-ORIGIN LEVEL: 0

PSCL4 SPEC fills:          0  NON-SPEC fills:          0
PSCL4 Test counter :          0
PSCL4 Leapfrog:          0
PSCL4 MSHR merge:          0
PSCL4 TOTAL     ACCESS:          0  HIT:          0  MISS:          0  HIT %:       -nan  MISS %:       -nan   MPKI: 0
PSCL4 PREFETCH  REQUESTED:          0  ISSUED:          0  USEFUL:          0  USELESS:          0
PSCL4 USEFUL LOAD PREFETCHES:          0 PREFETCH ISSUED TO LOWER LEVEL:          0  ACCURACY: -nan
PSCL4 TIMELY PREFETCHES:          0 LATE PREFETCHES: 0 DROPPED PREFETCHES: 0
PSCL4 COMMIT LATE PREFETCHES: 0 NORMAL LATE: 0 MISSED OPPORTUNITY: 0 UNCOVERED: 0
PSCL4 PREFETCHES SAME FILL-ORIGIN LEVEL: 0 DIFFERENT FILL-ORIGIN LEVEL: 0

PSCL3 SPEC fills:          0  NON-SPEC fills:          0
PSCL3 Test counter :          0
PSCL3 Leapfrog:          0
PSCL3 MSHR merge:          0
PSCL3 TOTAL     ACCESS:          0  HIT:          0  MISS:          0  HIT %:       -nan  MISS %:       -nan   MPKI: 0
PSCL3 PREFETCH  REQUESTED:          0  ISSUED:          0  USEFUL:          0  USELESS:          0
PSCL3 USEFUL LOAD PREFETCHES:          0 PREFETCH ISSUED TO LOWER LEVEL:          0  ACCURACY: -nan
PSCL3 TIMELY PREFETCHES:          0 LATE PREFETCHES: 0 DROPPED PREFETCHES: 0
PSCL3 COMMIT LATE PREFETCHES: 0 NORMAL LATE: 0 MISSED OPPORTUNITY: 0 UNCOVERED: 0
PSCL3 PREFETCHES SAME FILL-ORIGIN LEVEL: 0 DIFFERENT FILL-ORIGIN LEVEL: 0

PSCL2 SPEC fills:          0  NON-SPEC fills:          0
PSCL2 Test counter :          0
PSCL2 Leapfrog:          0
PSCL2 MSHR merge:          0
PSCL2 TOTAL     ACCESS:          0  HIT:          0  MISS:          0  HIT %:       -nan  MISS %:       -nan   MPKI: 0
PSCL2 PREFETCH  REQUESTED:          0  ISSUED:          0  USEFUL:          0  USELESS:          0
PSCL2 USEFUL LOAD PREFETCHES:          0 PREFETCH ISSUED TO LOWER LEVEL:          0  ACCURACY: -nan
PSCL2 TIMELY PREFETCHES:          0 LATE PREFETCHES: 0 DROPPED PREFETCHES: 0
PSCL2 COMMIT LATE PREFETCHES: 0 NORMAL LATE: 0 MISSED OPPORTUNITY: 0 UNCOVERED: 0
PSCL2 PREFETCHES SAME FILL-ORIGIN LEVEL: 0 DIFFERENT FILL-ORIGIN LEVEL: 0

LLC SPEC fills:          0  NON-SPEC fills:       2464
LLC Test counter :          0
LLC Leapfrog:          0
LLC MSHR merge:          0
LLC TOTAL     ACCESS:    5819545  HIT:    3066904  MISS:    2752641  HIT %:    52.7001  MISS %:    47.2999   MPKI: 13.7632
LLC LOAD      TOTAL       ACCESS:      24331  HIT:        783  MISS:      23548  HIT %:    3.21812  MISS %:    96.7819   MPKI: 0.11774
LLC LOAD      NON_SPEC    ACCESS:       2569  HIT:        105  MISS:       2464  HIT %:    4.08719  MISS %:    95.9128   MPKI: 0.01232
LLC LOAD      SPEC        ACCESS:      21762  HIT:        678  MISS:      21084  HIT %:    3.11552  MISS %:    96.8845   MPKI: 0.10542
LLC RFO       NON_SPEC    ACCESS:    1190763  HIT:          0  MISS:    1190763  HIT %:          0  MISS %:        100   MPKI: 5.95381
LLC PREFETCH  NON_SPEC    ACCESS:    1700162  HIT:     188547  MISS:    1511615  HIT %:    11.0899  MISS %:    88.9101   MPKI: 7.55807
LLC WRITEBACK NON_SPEC    ACCESS:    1191079  HIT:    1191044  MISS:         35  HIT %:    99.9971  MISS %: 0.00293851   MPKI: 0.000175
LLC CLEAN_EVICTION NON_SPEC    ACCESS:    1707197  HIT:    1686472  MISS:      20725  HIT %:     98.786  MISS %:    1.21398   MPKI: 0.103625
LLC COMMIT LOAD NON_SPEC    ACCESS:        632  HIT:         21  MISS:        611  HIT %:    3.32278  MISS %:    96.6772   MPKI: 0.003055
LLC LOAD TRANSLATION NON_SPEC    ACCESS:       3044  HIT:         24  MISS:       3020  HIT %:   0.788436  MISS %:    99.2116   MPKI: 0.0151
LLC TRANSLATION FROM L1D PREFETCHER NON_SPEC    ACCESS:       2337  HIT:         13  MISS:       2324  HIT %:   0.556269  MISS %:    99.4437   MPKI: 0.01162
LLC PREFETCH  REQUESTED:          0  ISSUED:          0  USEFUL:        366  USELESS:    1513339
LLC USEFUL LOAD PREFETCHES:        366 PREFETCH ISSUED TO LOWER LEVEL:    1511625  ACCURACY: 0.0242124
LLC TIMELY PREFETCHES:        366 LATE PREFETCHES: 0 DROPPED PREFETCHES: 0
LLC COMMIT LATE PREFETCHES: 0 NORMAL LATE: 0 MISSED OPPORTUNITY: 0 UNCOVERED: 23548
LLC PREFETCHES SAME FILL-ORIGIN LEVEL: 0 DIFFERENT FILL-ORIGIN LEVEL: 0
LLC AVERAGE MISS LATENCY: 606.283 cycles
LLC AVERAGE MISS LATENCY LOAD: 335.349 cycles
LLC AVERAGE MISS LATENCY PREFETCH: 474.445 cycles
LLC AVERAGE MSHR OCCUPANCY: 9.91924
LLC MSHR FULL: 0
LLC RQ	ACCESS:    1221114	FORWARD:          0	MERGED:          0	TO_CACHE:    1221114
LLC WQ	ACCESS:    2898276	FORWARD:          5	MERGED:          0	TO_CACHE:    2898276
LLC PQ	ACCESS:    1700177	FORWARD:          0	MERGED:          0	TO_CACHE:    1700172

LLC Dense regions hint to LLC: 0

RAW hits: 1012959
Loads Generated: 58645943
Loads sent to L1D: 57632980
Stores Generated: 36649052
Stores sent to L1D: 36649060
Major fault: 0 Minor fault: 48769
Allocated PAGES: 48769
Total Load insts: 68672774
Total Non-spec loads: 6643726
Percentage of speculative loads: 90.3255

LeapFrogging counter: 2305
Commit hits: 28951086 miss: 22782457
Commit hit %: 55.9619 miss %: 44.0381
Commits not translated: 0
Loads retired: 101553
Stores retired: 36649060
Cache fills: 101553
L1D response latency: 107.497 cycles
Load retirement latency: 187.419 cycles
OOO test counter: 0
Discarded buffer inserts: 28951086 hits: 12202 hit %: 0.042147
Filter prediction accuracy: -nan
LATENCY_FILL: 107.17 102151

DRAM Statistics
 CHANNEL 0
 RQ ROW_BUFFER_HIT:    1177088  ROW_BUFFER_MISS:    1554793
 DBUS_CONGESTED:       1553
 WQ ROW_BUFFER_HIT:     571113  ROW_BUFFER_MISS:    2143079  FULL:        135

 AVG_CONGESTED_CYCLE: 5
 All warmup complete: 2
Channel 0 Bank busy for read cycles: 0
Channel 0 Bank busy for write cycles: 0
Channel 0
Rank 0
0banks busy for read cycles: 265581
0banks busy for write cycles: 4
1banks busy for read cycles: 19453856
1banks busy for write cycles: 294386
2banks busy for read cycles: 30319569
2banks busy for write cycles: 297310
3banks busy for read cycles: 24216158
3banks busy for write cycles: 305116
4banks busy for read cycles: 18087420
4banks busy for write cycles: 315086
5banks busy for read cycles: 8572623
5banks busy for write cycles: 348647
6banks busy for read cycles: 4195239
6banks busy for write cycles: 673902
7banks busy for read cycles: 2243246
7banks busy for write cycles: 6183852
8banks busy for read cycles: 1907185
8banks busy for write cycles: 51916414

CPU 0 Branch Prediction Accuracy: 99.9697% MPKI: 0.00256 Average ROB Occupancy at Mispredict: 57.918
Branch types
NOT_BRANCH: 198311676 99.1558%
BRANCH_DIRECT_JUMP: 0 0%
BRANCH_INDIRECT: 0 0%
BRANCH_CONDITIONAL: 1688003 0.844001%
BRANCH_DIRECT_CALL: 0 0%
BRANCH_INDIRECT_CALL: 0 0%
BRANCH_RETURN: 0 0%
BRANCH_OTHER: 0 0%

DRAM PAGES: 1048576
Allocated PAGES: 48769
