
*** ChampSim Multicore Out-of-Order Simulator ***

Warmup Instructions: 50000000
Simulation Instructions: 200000000
Number of CPUs: 1
LLC sets: 2048
LLC ways: 16
L0D sets: 16
L0D ways: 2
ROB size: 352
LQ size: 128
SQ size: 72
Secure Berti: OFF
Berti: OFF
Berti Fill: OFF
On commit prefetching: OFF
Hit-based filter: OFF
Time-guarding: ON
Free-slotting: ON
Leap-frogging: ON
Train prefetcher on L0D bypass: OFF
No translation penalty for prefetchers: OFF
Prefetch to L0D only: OFF
Prefetch to L1D only: OFF
Clean evictions: ON
Commit loads: ON
Commit write: ON
Fill commit loads to L2C, LLC: ON
DRAM IO FREQUENCY: 6400
ROB SIZE: 352
Off-chip DRAM Size: 4096 MB Channels: 1 Width: 64-bit Data Rate: 6400 MT/s
CPU 0 runs /home/sumon/secure_berti/GhostMinion/../../traces/spec/605.mcf_s-665B.champsimtrace.xz
.xz
BTB has LRU replacement policy
ITLB has LRU replacement policy
DTLB has LRU replacement policy
STLB has LRU replacement policy
L1I has LRU replacement policy
L0D has LRU replacement policy
History Sets: 8
History Ways: 16
BERTI Size: 16
BERTI Stride Size: 16
L1D has LRU replacement policy
L2C has LRU replacement policy
LLC has LRU replacement policy
Heartbeat CPU 0 instructions: 10000000 cycles: 5676621 heartbeat IPC: 1.76161 cumulative IPC: 1.76161 (Simulation time: 0 hr 0 min 48 sec) 
Heartbeat CPU 0 instructions: 20000000 cycles: 11342891 heartbeat IPC: 1.76483 cumulative IPC: 1.76322 (Simulation time: 0 hr 1 min 35 sec) 
Heartbeat CPU 0 instructions: 30000002 cycles: 17015769 heartbeat IPC: 1.76277 cumulative IPC: 1.76307 (Simulation time: 0 hr 2 min 23 sec) 
Heartbeat CPU 0 instructions: 40000000 cycles: 22664816 heartbeat IPC: 1.77021 cumulative IPC: 1.76485 (Simulation time: 0 hr 3 min 10 sec) 
Heartbeat CPU 0 instructions: 50000000 cycles: 28340350 heartbeat IPC: 1.76195 cumulative IPC: 1.76427 (Simulation time: 0 hr 3 min 55 sec) 

Warmup complete CPU 0 instructions: 50000004 cycles: 28340351 (Simulation time: 0 hr 3 min 55 sec) 

Heartbeat CPU 0 instructions: 60000003 cycles: 61812715 heartbeat IPC: 0.298754 cumulative IPC: 0.298754 (Simulation time: 0 hr 4 min 49 sec) 
Heartbeat CPU 0 instructions: 70000003 cycles: 95128550 heartbeat IPC: 0.300158 cumulative IPC: 0.299454 (Simulation time: 0 hr 5 min 44 sec) 
Heartbeat CPU 0 instructions: 80000001 cycles: 128469984 heartbeat IPC: 0.299927 cumulative IPC: 0.299612 (Simulation time: 0 hr 6 min 40 sec) 
Heartbeat CPU 0 instructions: 90000001 cycles: 162676858 heartbeat IPC: 0.292339 cumulative IPC: 0.29776 (Simulation time: 0 hr 7 min 35 sec) 
Heartbeat CPU 0 instructions: 100000000 cycles: 195565104 heartbeat IPC: 0.30406 cumulative IPC: 0.298999 (Simulation time: 0 hr 8 min 30 sec) 
Heartbeat CPU 0 instructions: 110000000 cycles: 228460839 heartbeat IPC: 0.303991 cumulative IPC: 0.299819 (Simulation time: 0 hr 9 min 26 sec) 
Heartbeat CPU 0 instructions: 120000000 cycles: 261186485 heartbeat IPC: 0.305571 cumulative IPC: 0.300628 (Simulation time: 0 hr 10 min 21 sec) 
Heartbeat CPU 0 instructions: 130000000 cycles: 293861318 heartbeat IPC: 0.306046 cumulative IPC: 0.301294 (Simulation time: 0 hr 11 min 14 sec) 
Heartbeat CPU 0 instructions: 140000002 cycles: 327191787 heartbeat IPC: 0.300026 cumulative IPC: 0.301153 (Simulation time: 0 hr 12 min 7 sec) 
Heartbeat CPU 0 instructions: 150000000 cycles: 360325047 heartbeat IPC: 0.301811 cumulative IPC: 0.301219 (Simulation time: 0 hr 12 min 59 sec) 
Heartbeat CPU 0 instructions: 160000001 cycles: 393216920 heartbeat IPC: 0.304026 cumulative IPC: 0.301472 (Simulation time: 0 hr 13 min 51 sec) 
Heartbeat CPU 0 instructions: 170000003 cycles: 426612431 heartbeat IPC: 0.299442 cumulative IPC: 0.301302 (Simulation time: 0 hr 14 min 43 sec) 
Heartbeat CPU 0 instructions: 180000001 cycles: 459500199 heartbeat IPC: 0.304064 cumulative IPC: 0.301512 (Simulation time: 0 hr 15 min 33 sec) 
Heartbeat CPU 0 instructions: 190000002 cycles: 492434758 heartbeat IPC: 0.303632 cumulative IPC: 0.301663 (Simulation time: 0 hr 16 min 23 sec) 
Heartbeat CPU 0 instructions: 200000000 cycles: 525481944 heartbeat IPC: 0.302598 cumulative IPC: 0.301725 (Simulation time: 0 hr 17 min 12 sec) 
Heartbeat CPU 0 instructions: 210000000 cycles: 558427668 heartbeat IPC: 0.30353 cumulative IPC: 0.301837 (Simulation time: 0 hr 18 min 0 sec) 
Heartbeat CPU 0 instructions: 220000000 cycles: 591071318 heartbeat IPC: 0.306338 cumulative IPC: 0.302098 (Simulation time: 0 hr 18 min 46 sec) 
Heartbeat CPU 0 instructions: 230000000 cycles: 624740723 heartbeat IPC: 0.297006 cumulative IPC: 0.301811 (Simulation time: 0 hr 19 min 32 sec) 
Heartbeat CPU 0 instructions: 240000000 cycles: 657328509 heartbeat IPC: 0.306863 cumulative IPC: 0.302072 (Simulation time: 0 hr 20 min 17 sec) 
Heartbeat CPU 0 instructions: 250000002 cycles: 690128101 heartbeat IPC: 0.304882 cumulative IPC: 0.302212 (Simulation time: 0 hr 21 min 1 sec) 
Finished CPU 0 instructions: 200000002 cycles: 661787751 cumulative IPC: 0.302212 (Simulation time: 0 hr 21 min 1 sec) 
 Instruction ID: 250000015

ChampSim completed all CPUs

Region of Interest Statistics

CPU 0 cumulative IPC: 0.302212 instructions: 200000002 cycles: 661787751
ITLB SPEC fills:          0  NON-SPEC fills:          0
ITLB Test counter :          0
ITLB Leapfrog:          0
ITLB MSHR merge:          0
ITLB TOTAL     ACCESS:   36305579  HIT:   36305579  MISS:          0  HIT %:        100  MISS %:          0   MPKI: 0
ITLB LOAD TRANSLATION NON_SPEC    ACCESS:   36305579  HIT:   36305579  MISS:          0  HIT %:        100  MISS %:          0   MPKI: 0
ITLB PREFETCH  REQUESTED:          0  ISSUED:          0  USEFUL:          0  USELESS:          0
ITLB USEFUL LOAD PREFETCHES:          0 PREFETCH ISSUED TO LOWER LEVEL:          0  ACCURACY: -nan
ITLB TIMELY PREFETCHES:          0 LATE PREFETCHES: 0 DROPPED PREFETCHES: 0
ITLB COMMIT LATE PREFETCHES: 0 NORMAL LATE: 0 MISSED OPPORTUNITY: 0 UNCOVERED: 0
ITLB PREFETCHES SAME FILL-ORIGIN LEVEL: 0 DIFFERENT FILL-ORIGIN LEVEL: 0
ITLB AVERAGE MISS LATENCY: -nan cycles
ITLB AVERAGE MISS LATENCY LOAD: -nan cycles
ITLB AVERAGE MISS LATENCY PREFETCH: -nan cycles
ITLB AVERAGE MSHR OCCUPANCY: 0
ITLB MSHR FULL: 0
ITLB RQ	ACCESS:   38010714	FORWARD:          0	MERGED:    1705136	TO_CACHE:   36305578

DTLB SPEC fills:          0  NON-SPEC fills:          0
DTLB Test counter :          0
DTLB Leapfrog:          0
DTLB MSHR merge:          0
DTLB TOTAL     ACCESS:   67952767  HIT:   64957231  MISS:    2995536  HIT %:    95.5917  MISS %:    4.40826   MPKI: 14.9777
DTLB LOAD TRANSLATION NON_SPEC    ACCESS:   67952767  HIT:   64957231  MISS:    2995536  HIT %:    95.5917  MISS %:    4.40826   MPKI: 14.9777
DTLB PREFETCH  REQUESTED:          0  ISSUED:          0  USEFUL:          0  USELESS:          0
DTLB USEFUL LOAD PREFETCHES:          0 PREFETCH ISSUED TO LOWER LEVEL:          0  ACCURACY: -nan
DTLB TIMELY PREFETCHES:          0 LATE PREFETCHES: 0 DROPPED PREFETCHES: 0
DTLB COMMIT LATE PREFETCHES: 0 NORMAL LATE: 0 MISSED OPPORTUNITY: 0 UNCOVERED: 0
DTLB PREFETCHES SAME FILL-ORIGIN LEVEL: 0 DIFFERENT FILL-ORIGIN LEVEL: 0
DTLB AVERAGE MISS LATENCY: 11.2143 cycles
DTLB AVERAGE MISS LATENCY LOAD: -nan cycles
DTLB AVERAGE MISS LATENCY PREFETCH: -nan cycles
DTLB AVERAGE MSHR OCCUPANCY: 0.0257298
DTLB MSHR FULL: 0
DTLB RQ	ACCESS:   82041111	FORWARD:          0	MERGED:   13704372	TO_CACHE:   68336739

STLB SPEC fills:          0  NON-SPEC fills:          0
STLB Test counter :          0
STLB Leapfrog:          0
STLB MSHR merge:          0
STLB TOTAL     ACCESS:    9379121  HIT:    9337036  MISS:      42085  HIT %:    99.5513  MISS %:   0.448709   MPKI: 0.210425
STLB LOAD TRANSLATION NON_SPEC    ACCESS:    2995536  HIT:    2953603  MISS:      41933  HIT %:    98.6002  MISS %:    1.39985   MPKI: 0.209665
STLB TRANSLATION FROM L1D PREFETCHER NON_SPEC    ACCESS:    6383585  HIT:    6383433  MISS:        152  HIT %:    99.9976  MISS %: 0.00238111   MPKI: 0.00076
STLB PREFETCH  REQUESTED:          0  ISSUED:          0  USEFUL:        105  USELESS:         47
STLB USEFUL LOAD PREFETCHES:        105 PREFETCH ISSUED TO LOWER LEVEL:          0  ACCURACY: inf
STLB TIMELY PREFETCHES:        105 LATE PREFETCHES: 9095 DROPPED PREFETCHES: 390786
STLB COMMIT LATE PREFETCHES: 0 NORMAL LATE: 9095 MISSED OPPORTUNITY: 0 UNCOVERED: 18446744073709542521
STLB PREFETCHES SAME FILL-ORIGIN LEVEL: 0 DIFFERENT FILL-ORIGIN LEVEL: 0
STLB AVERAGE MISS LATENCY: 157.452 cycles
STLB AVERAGE MISS LATENCY LOAD: -nan cycles
STLB AVERAGE MISS LATENCY PREFETCH: -nan cycles
STLB AVERAGE MSHR OCCUPANCY: 0.162011
STLB MSHR FULL: 0
STLB RQ	ACCESS:   36973275	FORWARD:          0	MERGED:   27138200	TO_CACHE:    9835075

STLB Hit, L1D data hit: 0
STLB Hit, L2C data hit: 0
STLB Hit, LLC data hit: 0
STLB Hit, LLC data miss: 0
STLB STLB hints to L2: 0
L0D SPEC fills:   33982510  NON-SPEC fills:          0
L0D TimeGuard Request with older TS:     161880 Restricted eviction:      70122 read:     226724
L0D Test counter :          0
L0D Leapfrog:          0
L0D MSHR merge:     956842
L0D TOTAL     ACCESS:   57409891  HIT:    3943553  MISS:   53466338  HIT %:    6.86912  MISS %:    93.1309   MPKI: 267.332
L0D LOAD      TOTAL       ACCESS:   57409891  HIT:    3943553  MISS:   53466338  HIT %:    6.86912  MISS %:    93.1309   MPKI: 267.332
L0D LOAD      NON_SPEC    ACCESS:   19922381  HIT:     508675  MISS:   19413706  HIT %:    2.55328  MISS %:    97.4467   MPKI: 97.0685
L0D LOAD      SPEC        ACCESS:   37487510  HIT:    3434878  MISS:   34052632  HIT %:    9.16273  MISS %:    90.8373   MPKI: 170.263
L0D PREFETCH  REQUESTED:          0  ISSUED:          0  USEFUL:          0  USELESS:          0
L0D USEFUL LOAD PREFETCHES:          0 PREFETCH ISSUED TO LOWER LEVEL:          0  ACCURACY: -nan
L0D TIMELY PREFETCHES:          0 LATE PREFETCHES: 0 DROPPED PREFETCHES: 0
L0D COMMIT LATE PREFETCHES: 0 NORMAL LATE: 0 MISSED OPPORTUNITY: 0 UNCOVERED: 53466338
L0D PREFETCHES SAME FILL-ORIGIN LEVEL: 0 DIFFERENT FILL-ORIGIN LEVEL: 0
L0D AVERAGE MISS LATENCY: 10.1357 cycles
L0D AVERAGE MISS LATENCY LOAD: 10.1357 cycles
L0D AVERAGE MISS LATENCY PREFETCH: -nan cycles
L0D AVERAGE MSHR OCCUPANCY: 0.627343
L0D MSHR FULL: 0.00203859
L0D RQ	ACCESS:   67402622	FORWARD:          0	MERGED:    9035892	TO_CACHE:   58366730
L0D WQ	ACCESS:   23674381	FORWARD:          0	MERGED:          0	TO_CACHE:   23674381

L1D SPEC fills:          0  NON-SPEC fills:    2666624
L1D Test counter :          0
L1D Leapfrog:          0
L1D MSHR merge:      51451
L1D TOTAL     ACCESS:  146054284  HIT:  136891734  MISS:    9162550  HIT %:    93.7266  MISS %:    6.27339   MPKI: 45.8127
L1D LOAD      TOTAL       ACCESS:   53464554  HIT:   48634249  MISS:    4830305  HIT %:    90.9654  MISS %:    9.03459   MPKI: 24.1515
L1D LOAD      NON_SPEC    ACCESS:   19413432  HIT:   16746808  MISS:    2666624  HIT %:     86.264  MISS %:     13.736   MPKI: 13.3331
L1D LOAD      SPEC        ACCESS:   34051122  HIT:   31887441  MISS:    2163681  HIT %:    93.6458  MISS %:    6.35421   MPKI: 10.8184
L1D RFO       NON_SPEC    ACCESS:   20395476  HIT:   19640507  MISS:     754969  HIT %:    96.2984  MISS %:    3.70165   MPKI: 3.77484
L1D PREFETCH  NON_SPEC    ACCESS:   28127347  HIT:   26719168  MISS:    1408179  HIT %:    94.9936  MISS %:    5.00644   MPKI: 7.04089
L1D COMMIT LOAD NON_SPEC    ACCESS:   10165692  HIT:   10098727  MISS:      66965  HIT %:    99.3413  MISS %:   0.658735   MPKI: 0.334825
L1D COMMIT WRITE NON_SPEC    ACCESS:   33901215  HIT:   31799083  MISS:    2102132  HIT %:    93.7992  MISS %:    6.20076   MPKI: 10.5107
L1D PREFETCH  REQUESTED:   38589814  ISSUED:   36442085  USEFUL:    1399450  USELESS:       8729
L1D USEFUL LOAD PREFETCHES:    1399450 PREFETCH ISSUED TO LOWER LEVEL:    4988671  ACCURACY: 28.0526
L1D TIMELY PREFETCHES:    1399450 LATE PREFETCHES: 49669 DROPPED PREFETCHES: 1320367
L1D COMMIT LATE PREFETCHES: 0 NORMAL LATE: 49669 MISSED OPPORTUNITY: 0 UNCOVERED: 4780636
L1D PREFETCHES SAME FILL-ORIGIN LEVEL: 1457848 DIFFERENT FILL-ORIGIN LEVEL: 3530823
L1D AVERAGE MISS LATENCY: 60.2894 cycles
L1D AVERAGE MISS LATENCY LOAD: 55.522 cycles
L1D AVERAGE MISS LATENCY PREFETCH: 184.533 cycles
L1D AVERAGE MSHR OCCUPANCY: 0.480276
L1D MSHR FULL: 0.00772999
L1D RQ	ACCESS:   66935184	FORWARD:          0	MERGED:    2504961	TO_CACHE:   63633215
L1D WQ	ACCESS:   57579116	FORWARD:     797008	MERGED:    2015384	TO_CACHE:   55563732
L1D PQ	ACCESS:   36442085	FORWARD:          0	MERGED:    2464346	TO_CACHE:   33977739

L1D UNIQUE REGIONS ACCESSED: 0
L1D REGIONS CONFLICTS: 0
L1D Cross Page Prefetch Requests: 4061639
L1D Same Page Prefetch Requests: 39127092
L1D ROI Sum of L1D PQ occupancy: 687977753
L1D PREFETCHES PUSHED FROM L2C: 0
L1I SPEC fills:          0  NON-SPEC fills:          0
L1I Test counter :          0
L1I Leapfrog:          0
L1I MSHR merge:          0
L1I TOTAL     ACCESS:   38010715  HIT:   38010713  MISS:          2  HIT %:        100  MISS %: 5.26167e-06   MPKI: 1e-05
L1I LOAD      TOTAL       ACCESS:   38010715  HIT:   38010713  MISS:          2  HIT %:        100  MISS %: 5.26167e-06   MPKI: 1e-05
L1I LOAD      NON_SPEC    ACCESS:   38010715  HIT:   38010713  MISS:          2  HIT %:        100  MISS %: 5.26167e-06   MPKI: 1e-05
L1I PREFETCH  REQUESTED:          0  ISSUED:          0  USEFUL:          0  USELESS:          0
L1I USEFUL LOAD PREFETCHES:          0 PREFETCH ISSUED TO LOWER LEVEL:          0  ACCURACY: -nan
L1I TIMELY PREFETCHES:          0 LATE PREFETCHES: 0 DROPPED PREFETCHES: 0
L1I COMMIT LATE PREFETCHES: 0 NORMAL LATE: 0 MISSED OPPORTUNITY: 0 UNCOVERED: 2
L1I PREFETCHES SAME FILL-ORIGIN LEVEL: 0 DIFFERENT FILL-ORIGIN LEVEL: 0
L1I AVERAGE MISS LATENCY: 214 cycles
L1I AVERAGE MISS LATENCY LOAD: 214 cycles
L1I AVERAGE MISS LATENCY PREFETCH: -nan cycles
L1I AVERAGE MSHR OCCUPANCY: 2.63084e-08
L1I MSHR FULL: 0
L1I RQ	ACCESS:   61775363	FORWARD:          0	MERGED:   23764649	TO_CACHE:   38010714

BTB SPEC fills:          0  NON-SPEC fills:          0
BTB Test counter :          0
BTB Leapfrog:          0
BTB MSHR merge:          0
BTB TOTAL     ACCESS:   47317450  HIT:   44887024  MISS:    2430426  HIT %:    94.8636  MISS %:    5.13643   MPKI: 12.1521
BTB BRANCH_DIRECT_JUMP	ACCESS:    5163667  HIT:    5163630  MISS:         37
BTB BRANCH_INDIRECT	ACCESS:          0  HIT:          0  MISS:          0
BTB BRANCH_CONDITIONAL	ACCESS:   31033862  HIT:   31033783  MISS:         79
BTB BRANCH_DIRECT_CALL	ACCESS:    5259751  HIT:    5259733  MISS:         18
BTB BRANCH_INDIRECT_CALL	ACCESS:     300210  HIT:     300202  MISS:          8
BTB BRANCH_RETURN	ACCESS:    5559960  HIT:    3129676  MISS:    2430284
BTB BRANCH_OTHER ACCESS:          0  HIT:          0  MISS:          0

L2C SPEC fills:          0  NON-SPEC fills:    1241570
L2C Test counter :          0
L2C Leapfrog:          0
L2C MSHR merge:       1685
L2C TOTAL     ACCESS:   17510763  HIT:   11616877  MISS:    5893886  HIT %:    66.3414  MISS %:    33.6586   MPKI: 29.4694
L2C LOAD      TOTAL       ACCESS:    4780513  HIT:    2189451  MISS:    2591062  HIT %:    45.7995  MISS %:    54.2005   MPKI: 12.9553
L2C LOAD      NON_SPEC    ACCESS:    2666490  HIT:    1424918  MISS:    1241572  HIT %:     53.438  MISS %:     46.562   MPKI: 6.20786
L2C LOAD      SPEC        ACCESS:    2114023  HIT:     764533  MISS:    1349490  HIT %:    36.1648  MISS %:    63.8352   MPKI: 6.74745
L2C RFO       NON_SPEC    ACCESS:     754949  HIT:     449679  MISS:     305270  HIT %:    59.5642  MISS %:    40.4358   MPKI: 1.52635
L2C PREFETCH  NON_SPEC    ACCESS:    4819337  HIT:    3204756  MISS:    1614581  HIT %:    66.4979  MISS %:    33.5021   MPKI: 8.0729
L2C WRITEBACK NON_SPEC    ACCESS:     801259  HIT:     801025  MISS:        234  HIT %:    99.9708  MISS %:   0.029204   MPKI: 0.00117
L2C CLEAN_EVICTION NON_SPEC    ACCESS:    4079226  HIT:    2760778  MISS:    1318448  HIT %:     67.679  MISS %:     32.321   MPKI: 6.59224
L2C COMMIT LOAD NON_SPEC    ACCESS:      66920  HIT:      22834  MISS:      44086  HIT %:    34.1213  MISS %:    65.8787   MPKI: 0.22043
L2C LOAD TRANSLATION NON_SPEC    ACCESS:     209423  HIT:     192564  MISS:      16859  HIT %:    91.9498  MISS %:    8.05021   MPKI: 0.084295
L2C TRANSLATION FROM L1D PREFETCHER NON_SPEC    ACCESS:    1999136  HIT:    1995790  MISS:       3346  HIT %:    99.8326  MISS %:   0.167372   MPKI: 0.01673
L2C PREFETCH  REQUESTED:          0  ISSUED:          0  USEFUL:     404815  USELESS:    1213205
L2C USEFUL LOAD PREFETCHES:     404815 PREFETCH ISSUED TO LOWER LEVEL:    1616275  ACCURACY: 25.0462
L2C TIMELY PREFETCHES:     404815 LATE PREFETCHES: 1694 DROPPED PREFETCHES: 0
L2C COMMIT LATE PREFETCHES: 0 NORMAL LATE: 1694 MISSED OPPORTUNITY: 0 UNCOVERED: 2589368
L2C PREFETCHES SAME FILL-ORIGIN LEVEL: 472552 DIFFERENT FILL-ORIGIN LEVEL: 0
L2C AVERAGE MISS LATENCY: 84.9328 cycles
L2C AVERAGE MISS LATENCY LOAD: 74.9373 cycles
L2C AVERAGE MISS LATENCY PREFETCH: 181.267 cycles
L2C AVERAGE MSHR OCCUPANCY: 2.04235
L2C MSHR FULL: 0
L2C RQ	ACCESS:    7811131	FORWARD:          0	MERGED:          0	TO_CACHE:    7810941
L2C WQ	ACCESS:    4880492	FORWARD:        195	MERGED:          7	TO_CACHE:    4880485
L2C PQ	ACCESS:    4988671	FORWARD:          0	MERGED:         26	TO_CACHE:    4988640

L2C Instructions Evicting Data 2
L2C Translations Evicting Data 20061
L2C Data Evicting Data 3191451
L2C Instructions Evicting Instructions 0
L2C Translations Evicting Instructions 0
L2C Data Evicting Instructions 0
L2C Instructions Evicting Translations 0
L2C Translations Evicting Translations 144
L2C Data Evicting Translations 14056
L2C Dense regions hint from L2: 0
PSCL5 SPEC fills:          0  NON-SPEC fills:          0
PSCL5 Test counter :          0
PSCL5 Leapfrog:          0
PSCL5 MSHR merge:          0
PSCL5 TOTAL     ACCESS:          0  HIT:          0  MISS:          0  HIT %:       -nan  MISS %:       -nan   MPKI: 0
PSCL5 PREFETCH  REQUESTED:          0  ISSUED:          0  USEFUL:          0  USELESS:          0
PSCL5 USEFUL LOAD PREFETCHES:          0 PREFETCH ISSUED TO LOWER LEVEL:          0  ACCURACY: -nan
PSCL5 TIMELY PREFETCHES:          0 LATE PREFETCHES: 0 DROPPED PREFETCHES: 0
PSCL5 COMMIT LATE PREFETCHES: 0 NORMAL LATE: 0 MISSED OPPORTUNITY: 0 UNCOVERED: 0
PSCL5 PREFETCHES SAME FILL-ORIGIN LEVEL: 0 DIFFERENT FILL-ORIGIN LEVEL: 0

PSCL4 SPEC fills:          0  NON-SPEC fills:          0
PSCL4 Test counter :          0
PSCL4 Leapfrog:          0
PSCL4 MSHR merge:          0
PSCL4 TOTAL     ACCESS:          0  HIT:          0  MISS:          0  HIT %:       -nan  MISS %:       -nan   MPKI: 0
PSCL4 PREFETCH  REQUESTED:          0  ISSUED:          0  USEFUL:          0  USELESS:          0
PSCL4 USEFUL LOAD PREFETCHES:          0 PREFETCH ISSUED TO LOWER LEVEL:          0  ACCURACY: -nan
PSCL4 TIMELY PREFETCHES:          0 LATE PREFETCHES: 0 DROPPED PREFETCHES: 0
PSCL4 COMMIT LATE PREFETCHES: 0 NORMAL LATE: 0 MISSED OPPORTUNITY: 0 UNCOVERED: 0
PSCL4 PREFETCHES SAME FILL-ORIGIN LEVEL: 0 DIFFERENT FILL-ORIGIN LEVEL: 0

PSCL3 SPEC fills:          0  NON-SPEC fills:          0
PSCL3 Test counter :          0
PSCL3 Leapfrog:          0
PSCL3 MSHR merge:          0
PSCL3 TOTAL     ACCESS:          0  HIT:          0  MISS:          0  HIT %:       -nan  MISS %:       -nan   MPKI: 0
PSCL3 PREFETCH  REQUESTED:          0  ISSUED:          0  USEFUL:          0  USELESS:          0
PSCL3 USEFUL LOAD PREFETCHES:          0 PREFETCH ISSUED TO LOWER LEVEL:          0  ACCURACY: -nan
PSCL3 TIMELY PREFETCHES:          0 LATE PREFETCHES: 0 DROPPED PREFETCHES: 0
PSCL3 COMMIT LATE PREFETCHES: 0 NORMAL LATE: 0 MISSED OPPORTUNITY: 0 UNCOVERED: 0
PSCL3 PREFETCHES SAME FILL-ORIGIN LEVEL: 0 DIFFERENT FILL-ORIGIN LEVEL: 0

PSCL2 SPEC fills:          0  NON-SPEC fills:          0
PSCL2 Test counter :          0
PSCL2 Leapfrog:          0
PSCL2 MSHR merge:          0
PSCL2 TOTAL     ACCESS:          0  HIT:          0  MISS:          0  HIT %:       -nan  MISS %:       -nan   MPKI: 0
PSCL2 PREFETCH  REQUESTED:          0  ISSUED:          0  USEFUL:          0  USELESS:          0
PSCL2 USEFUL LOAD PREFETCHES:          0 PREFETCH ISSUED TO LOWER LEVEL:          0  ACCURACY: -nan
PSCL2 TIMELY PREFETCHES:          0 LATE PREFETCHES: 0 DROPPED PREFETCHES: 0
PSCL2 COMMIT LATE PREFETCHES: 0 NORMAL LATE: 0 MISSED OPPORTUNITY: 0 UNCOVERED: 0
PSCL2 PREFETCHES SAME FILL-ORIGIN LEVEL: 0 DIFFERENT FILL-ORIGIN LEVEL: 0

LLC SPEC fills:          0  NON-SPEC fills:     265903
LLC Test counter :          0
LLC Leapfrog:          0
LLC MSHR merge:          0
LLC TOTAL     ACCESS:    7819365  HIT:    5309105  MISS:    2510260  HIT %:    67.8969  MISS %:    32.1031   MPKI: 12.5513
LLC LOAD      TOTAL       ACCESS:    2589362  HIT:    1924464  MISS:     664898  HIT %:    74.3219  MISS %:    25.6781   MPKI: 3.32449
LLC LOAD      NON_SPEC    ACCESS:    1241539  HIT:     975634  MISS:     265905  HIT %:    78.5826  MISS %:    21.4174   MPKI: 1.32952
LLC LOAD      SPEC        ACCESS:    1347823  HIT:     948830  MISS:     398993  HIT %:    70.3972  MISS %:    29.6028   MPKI: 1.99496
LLC RFO       NON_SPEC    ACCESS:     305249  HIT:     302270  MISS:       2979  HIT %:    99.0241  MISS %:   0.975925   MPKI: 0.014895
LLC PREFETCH  NON_SPEC    ACCESS:    1616273  HIT:     230105  MISS:    1386168  HIT %:    14.2368  MISS %:    85.7632   MPKI: 6.93084
LLC WRITEBACK NON_SPEC    ACCESS:     319041  HIT:     310863  MISS:       8178  HIT %:    97.4367  MISS %:    2.56331   MPKI: 0.04089
LLC CLEAN_EVICTION NON_SPEC    ACCESS:    2925160  HIT:    2487990  MISS:     437170  HIT %:    85.0548  MISS %:    14.9452   MPKI: 2.18585
LLC COMMIT LOAD NON_SPEC    ACCESS:      44075  HIT:      38971  MISS:       5104  HIT %:    88.4197  MISS %:    11.5803   MPKI: 0.02552
LLC LOAD TRANSLATION NON_SPEC    ACCESS:      16859  HIT:      14088  MISS:       2771  HIT %:    83.5637  MISS %:    16.4363   MPKI: 0.013855
LLC TRANSLATION FROM L1D PREFETCHER NON_SPEC    ACCESS:       3346  HIT:        354  MISS:       2992  HIT %:    10.5798  MISS %:    89.4202   MPKI: 0.01496
LLC PREFETCH  REQUESTED:          0  ISSUED:          0  USEFUL:     172652  USELESS:    1218472
LLC USEFUL LOAD PREFETCHES:     172652 PREFETCH ISSUED TO LOWER LEVEL:    1386168  ACCURACY: 12.4553
LLC TIMELY PREFETCHES:     172652 LATE PREFETCHES: 0 DROPPED PREFETCHES: 0
LLC COMMIT LATE PREFETCHES: 0 NORMAL LATE: 0 MISSED OPPORTUNITY: 0 UNCOVERED: 664898
LLC PREFETCHES SAME FILL-ORIGIN LEVEL: 0 DIFFERENT FILL-ORIGIN LEVEL: 0
LLC AVERAGE MISS LATENCY: 149.338 cycles
LLC AVERAGE MISS LATENCY LOAD: 192.376 cycles
LLC AVERAGE MISS LATENCY PREFETCH: 176.285 cycles
LLC AVERAGE MSHR OCCUPANCY: 1.89327
LLC MSHR FULL: 0
LLC RQ	ACCESS:    2958929	FORWARD:          0	MERGED:          0	TO_CACHE:    2958891
LLC WQ	ACCESS:    3244201	FORWARD:         40	MERGED:          0	TO_CACHE:    3244201
LLC PQ	ACCESS:    1616275	FORWARD:          0	MERGED:          0	TO_CACHE:    1616273

LLC Dense regions hint to LLC: 0

RAW hits: 2882983
Loads Generated: 70285606
Loads sent to L1D: 67402622
Stores Generated: 23674352
Stores sent to L1D: 23674381
Major fault: 0 Minor fault: 30918
Allocated PAGES: 30918
Total Load insts: 83343161
Total Non-spec loads: 21740058
Percentage of speculative loads: 73.915

LeapFrogging counter: 458672
Commit hits: 33904735 miss: 13468847
Commit hit %: 71.5689 miss %: 28.4311
Commits not translated: 0
Loads retired: 4830305
Stores retired: 23674381
Cache fills: 4830305
L1D response latency: 55.522 cycles
Load retirement latency: 109.999 cycles
OOO test counter: 0
Discarded buffer inserts: 33904735 hits: 17580 hit %: 0.0518512
Filter prediction accuracy: -nan
LATENCY_FILL: 55.3425 4827963

DRAM Statistics
 CHANNEL 0
 RQ ROW_BUFFER_HIT:     333699  ROW_BUFFER_MISS:    1730963
 DBUS_CONGESTED:       1069
 WQ ROW_BUFFER_HIT:     432408  ROW_BUFFER_MISS:    1353193  FULL:        905

 AVG_CONGESTED_CYCLE: 5
 All warmup complete: 2
Channel 0 Bank busy for read cycles: 0
Channel 0 Bank busy for write cycles: 0
Channel 0
Rank 0
0banks busy for read cycles: 467839801
0banks busy for write cycles: 107285
1banks busy for read cycles: 50532250
1banks busy for write cycles: 14285703
2banks busy for read cycles: 29873372
2banks busy for write cycles: 7479652
3banks busy for read cycles: 14272648
3banks busy for write cycles: 7088125
4banks busy for read cycles: 8288602
4banks busy for write cycles: 6952488
5banks busy for read cycles: 5400589
5banks busy for write cycles: 7089684
6banks busy for read cycles: 3481555
6banks busy for write cycles: 7557528
7banks busy for read cycles: 2283397
7banks busy for write cycles: 9338127
8banks busy for read cycles: 3376310
8banks busy for write cycles: 16540636

CPU 0 Branch Prediction Accuracy: 92.9349% MPKI: 17.4788 Average ROB Occupancy at Mispredict: 18.2762
Branch types
NOT_BRANCH: 150520483 75.2602%
BRANCH_DIRECT_JUMP: 5163667 2.58183%
BRANCH_INDIRECT: 0 0%
BRANCH_CONDITIONAL: 33195560 16.5978%
BRANCH_DIRECT_CALL: 5259751 2.62988%
BRANCH_INDIRECT_CALL: 300210 0.150105%
BRANCH_RETURN: 5559960 2.77998%
BRANCH_OTHER: 0 0%

DRAM PAGES: 1048576
Allocated PAGES: 30918
