
*** ChampSim Multicore Out-of-Order Simulator ***

Warmup Instructions: 50000000
Simulation Instructions: 200000000
Number of CPUs: 1
LLC sets: 2048
LLC ways: 16
L0D sets: 16
L0D ways: 2
ROB size: 352
LQ size: 128
SQ size: 72
Secure Berti: OFF
Berti: OFF
Berti Fill: OFF
On commit prefetching: OFF
Hit-based filter: OFF
Time-guarding: ON
Free-slotting: ON
Leap-frogging: ON
Train prefetcher on L0D bypass: OFF
No translation penalty for prefetchers: OFF
Prefetch to L0D only: OFF
Prefetch to L1D only: OFF
Clean evictions: ON
Commit loads: ON
Commit write: ON
Fill commit loads to L2C, LLC: ON
DRAM IO FREQUENCY: 6400
ROB SIZE: 352
Off-chip DRAM Size: 4096 MB Channels: 1 Width: 64-bit Data Rate: 6400 MT/s
CPU 0 runs /home/sumon/secure_berti/GhostMinion/../../traces/spec/605.mcf_s-1152B.champsimtrace.xz
.xz
BTB has LRU replacement policy
ITLB has LRU replacement policy
DTLB has LRU replacement policy
STLB has LRU replacement policy
L1I has LRU replacement policy
L0D has LRU replacement policy
History Sets: 8
History Ways: 16
BERTI Size: 16
BERTI Stride Size: 16
L1D has LRU replacement policy
L2C has LRU replacement policy
LLC has LRU replacement policy
Heartbeat CPU 0 instructions: 10000001 cycles: 5600303 heartbeat IPC: 1.78562 cumulative IPC: 1.78562 (Simulation time: 0 hr 0 min 48 sec) 
Heartbeat CPU 0 instructions: 20000000 cycles: 11157570 heartbeat IPC: 1.79945 cumulative IPC: 1.79251 (Simulation time: 0 hr 1 min 37 sec) 
Heartbeat CPU 0 instructions: 30000000 cycles: 16735675 heartbeat IPC: 1.79272 cumulative IPC: 1.79258 (Simulation time: 0 hr 2 min 25 sec) 
Heartbeat CPU 0 instructions: 40000001 cycles: 22332469 heartbeat IPC: 1.78674 cumulative IPC: 1.79111 (Simulation time: 0 hr 3 min 13 sec) 
Heartbeat CPU 0 instructions: 50000001 cycles: 27916428 heartbeat IPC: 1.79084 cumulative IPC: 1.79106 (Simulation time: 0 hr 4 min 1 sec) 

Warmup complete CPU 0 instructions: 50000001 cycles: 27916428 (Simulation time: 0 hr 4 min 1 sec) 

Heartbeat CPU 0 instructions: 60000001 cycles: 62407605 heartbeat IPC: 0.289929 cumulative IPC: 0.289929 (Simulation time: 0 hr 4 min 56 sec) 
Heartbeat CPU 0 instructions: 70000000 cycles: 97218759 heartbeat IPC: 0.287264 cumulative IPC: 0.288591 (Simulation time: 0 hr 5 min 52 sec) 
Heartbeat CPU 0 instructions: 80000001 cycles: 131632569 heartbeat IPC: 0.290581 cumulative IPC: 0.289251 (Simulation time: 0 hr 6 min 48 sec) 
Heartbeat CPU 0 instructions: 90000003 cycles: 166325090 heartbeat IPC: 0.288247 cumulative IPC: 0.288999 (Simulation time: 0 hr 7 min 43 sec) 
Heartbeat CPU 0 instructions: 100000001 cycles: 201203945 heartbeat IPC: 0.286707 cumulative IPC: 0.288538 (Simulation time: 0 hr 8 min 38 sec) 
Heartbeat CPU 0 instructions: 110000000 cycles: 236080966 heartbeat IPC: 0.286722 cumulative IPC: 0.288234 (Simulation time: 0 hr 9 min 33 sec) 
Heartbeat CPU 0 instructions: 120000002 cycles: 271062928 heartbeat IPC: 0.285862 cumulative IPC: 0.287892 (Simulation time: 0 hr 10 min 29 sec) 
Heartbeat CPU 0 instructions: 130000002 cycles: 306631672 heartbeat IPC: 0.281146 cumulative IPC: 0.287031 (Simulation time: 0 hr 11 min 27 sec) 
Heartbeat CPU 0 instructions: 140000003 cycles: 342828131 heartbeat IPC: 0.27627 cumulative IPC: 0.285794 (Simulation time: 0 hr 12 min 26 sec) 
Heartbeat CPU 0 instructions: 150000001 cycles: 379221873 heartbeat IPC: 0.274772 cumulative IPC: 0.284653 (Simulation time: 0 hr 13 min 27 sec) 
Heartbeat CPU 0 instructions: 160000000 cycles: 416205821 heartbeat IPC: 0.270388 cumulative IPC: 0.283294 (Simulation time: 0 hr 14 min 28 sec) 
Heartbeat CPU 0 instructions: 170000001 cycles: 454219829 heartbeat IPC: 0.263061 cumulative IPC: 0.28149 (Simulation time: 0 hr 15 min 29 sec) 
Heartbeat CPU 0 instructions: 180000000 cycles: 492471859 heartbeat IPC: 0.261424 cumulative IPC: 0.279837 (Simulation time: 0 hr 16 min 31 sec) 
Heartbeat CPU 0 instructions: 190000002 cycles: 531111500 heartbeat IPC: 0.258802 cumulative IPC: 0.278222 (Simulation time: 0 hr 17 min 33 sec) 
Heartbeat CPU 0 instructions: 200000001 cycles: 570194862 heartbeat IPC: 0.255863 cumulative IPC: 0.276611 (Simulation time: 0 hr 18 min 32 sec) 
Heartbeat CPU 0 instructions: 210000002 cycles: 608882290 heartbeat IPC: 0.258482 cumulative IPC: 0.275403 (Simulation time: 0 hr 19 min 28 sec) 
Heartbeat CPU 0 instructions: 220000000 cycles: 646714795 heartbeat IPC: 0.264323 cumulative IPC: 0.274726 (Simulation time: 0 hr 20 min 22 sec) 
Heartbeat CPU 0 instructions: 230000002 cycles: 684480085 heartbeat IPC: 0.264793 cumulative IPC: 0.274155 (Simulation time: 0 hr 21 min 15 sec) 
Heartbeat CPU 0 instructions: 240000000 cycles: 726137399 heartbeat IPC: 0.240054 cumulative IPC: 0.27212 (Simulation time: 0 hr 22 min 11 sec) 
Heartbeat CPU 0 instructions: 250000001 cycles: 765207172 heartbeat IPC: 0.255952 cumulative IPC: 0.271263 (Simulation time: 0 hr 23 min 21 sec) 
Finished CPU 0 instructions: 200000000 cycles: 737290744 cumulative IPC: 0.271263 (Simulation time: 0 hr 23 min 21 sec) 
 Instruction ID: 250000117

ChampSim completed all CPUs

Region of Interest Statistics

CPU 0 cumulative IPC: 0.271263 instructions: 200000000 cycles: 737290744
ITLB SPEC fills:          0  NON-SPEC fills:          0
ITLB Test counter :          0
ITLB Leapfrog:          0
ITLB MSHR merge:          0
ITLB TOTAL     ACCESS:   34638255  HIT:   34638255  MISS:          0  HIT %:        100  MISS %:          0   MPKI: 0
ITLB LOAD TRANSLATION NON_SPEC    ACCESS:   34638255  HIT:   34638255  MISS:          0  HIT %:        100  MISS %:          0   MPKI: 0
ITLB PREFETCH  REQUESTED:          0  ISSUED:          0  USEFUL:          0  USELESS:          0
ITLB USEFUL LOAD PREFETCHES:          0 PREFETCH ISSUED TO LOWER LEVEL:          0  ACCURACY: -nan
ITLB TIMELY PREFETCHES:          0 LATE PREFETCHES: 0 DROPPED PREFETCHES: 0
ITLB COMMIT LATE PREFETCHES: 0 NORMAL LATE: 0 MISSED OPPORTUNITY: 0 UNCOVERED: 0
ITLB PREFETCHES SAME FILL-ORIGIN LEVEL: 0 DIFFERENT FILL-ORIGIN LEVEL: 0
ITLB AVERAGE MISS LATENCY: -nan cycles
ITLB AVERAGE MISS LATENCY LOAD: -nan cycles
ITLB AVERAGE MISS LATENCY PREFETCH: -nan cycles
ITLB AVERAGE MSHR OCCUPANCY: 0
ITLB MSHR FULL: 0
ITLB RQ	ACCESS:   36100426	FORWARD:          0	MERGED:    1462172	TO_CACHE:   34638254

DTLB SPEC fills:          0  NON-SPEC fills:          0
DTLB Test counter :          0
DTLB Leapfrog:          0
DTLB MSHR merge:          0
DTLB TOTAL     ACCESS:   59665960  HIT:   52357812  MISS:    7308148  HIT %:    87.7516  MISS %:    12.2484   MPKI: 36.5407
DTLB LOAD TRANSLATION NON_SPEC    ACCESS:   59665960  HIT:   52357812  MISS:    7308148  HIT %:    87.7516  MISS %:    12.2484   MPKI: 36.5407
DTLB PREFETCH  REQUESTED:          0  ISSUED:          0  USEFUL:          0  USELESS:          0
DTLB USEFUL LOAD PREFETCHES:          0 PREFETCH ISSUED TO LOWER LEVEL:          0  ACCURACY: -nan
DTLB TIMELY PREFETCHES:          0 LATE PREFETCHES: 0 DROPPED PREFETCHES: 0
DTLB COMMIT LATE PREFETCHES: 0 NORMAL LATE: 0 MISSED OPPORTUNITY: 0 UNCOVERED: 0
DTLB PREFETCHES SAME FILL-ORIGIN LEVEL: 0 DIFFERENT FILL-ORIGIN LEVEL: 0
DTLB AVERAGE MISS LATENCY: 11.4756 cycles
DTLB AVERAGE MISS LATENCY LOAD: -nan cycles
DTLB AVERAGE MISS LATENCY PREFETCH: -nan cycles
DTLB AVERAGE MSHR OCCUPANCY: 0.0969129
DTLB MSHR FULL: 1.66188e-08
DTLB RQ	ACCESS:   72814188	FORWARD:          0	MERGED:   12641477	TO_CACHE:   60172711

STLB SPEC fills:          0  NON-SPEC fills:          0
STLB Test counter :          0
STLB Leapfrog:          0
STLB MSHR merge:          0
STLB TOTAL     ACCESS:   13340023  HIT:   13239198  MISS:     100825  HIT %:    99.2442  MISS %:   0.755808   MPKI: 0.504125
STLB LOAD TRANSLATION NON_SPEC    ACCESS:    7308148  HIT:    7208137  MISS:     100011  HIT %:    98.6315  MISS %:    1.36849   MPKI: 0.500055
STLB TRANSLATION FROM L1D PREFETCHER NON_SPEC    ACCESS:    6031875  HIT:    6031061  MISS:        814  HIT %:    99.9865  MISS %:   0.013495   MPKI: 0.00407
STLB PREFETCH  REQUESTED:          0  ISSUED:          0  USEFUL:        456  USELESS:        358
STLB USEFUL LOAD PREFETCHES:        456 PREFETCH ISSUED TO LOWER LEVEL:          0  ACCURACY: inf
STLB TIMELY PREFETCHES:        456 LATE PREFETCHES: 31345 DROPPED PREFETCHES: 1087190
STLB COMMIT LATE PREFETCHES: 0 NORMAL LATE: 31345 MISSED OPPORTUNITY: 0 UNCOVERED: 18446744073709520271
STLB PREFETCHES SAME FILL-ORIGIN LEVEL: 0 DIFFERENT FILL-ORIGIN LEVEL: 0
STLB AVERAGE MISS LATENCY: 173.22 cycles
STLB AVERAGE MISS LATENCY LOAD: -nan cycles
STLB AVERAGE MISS LATENCY PREFETCH: -nan cycles
STLB AVERAGE MSHR OCCUPANCY: 0.38908
STLB MSHR FULL: 0
STLB RQ	ACCESS:   46747691	FORWARD:          0	MERGED:   32097015	TO_CACHE:   14650676

STLB Hit, L1D data hit: 0
STLB Hit, L2C data hit: 0
STLB Hit, LLC data hit: 0
STLB Hit, LLC data miss: 0
STLB STLB hints to L2: 0
L0D SPEC fills:   33829163  NON-SPEC fills:          0
L0D TimeGuard Request with older TS:     477698 Restricted eviction:     280547 read:     227586
L0D Test counter :          0
L0D Leapfrog:          0
L0D MSHR merge:    1924857
L0D TOTAL     ACCESS:   53086397  HIT:    3532781  MISS:   49553616  HIT %:    6.65478  MISS %:    93.3452   MPKI: 247.768
L0D LOAD      TOTAL       ACCESS:   53086397  HIT:    3532781  MISS:   49553616  HIT %:    6.65478  MISS %:    93.3452   MPKI: 247.768
L0D LOAD      NON_SPEC    ACCESS:   16018598  HIT:     574690  MISS:   15443908  HIT %:    3.58764  MISS %:    96.4124   MPKI: 77.2195
L0D LOAD      SPEC        ACCESS:   37067799  HIT:    2958091  MISS:   34109708  HIT %:    7.98022  MISS %:    92.0198   MPKI: 170.549
L0D PREFETCH  REQUESTED:          0  ISSUED:          0  USEFUL:          0  USELESS:          0
L0D USEFUL LOAD PREFETCHES:          0 PREFETCH ISSUED TO LOWER LEVEL:          0  ACCURACY: -nan
L0D TIMELY PREFETCHES:          0 LATE PREFETCHES: 0 DROPPED PREFETCHES: 0
L0D COMMIT LATE PREFETCHES: 0 NORMAL LATE: 0 MISSED OPPORTUNITY: 0 UNCOVERED: 49553616
L0D PREFETCHES SAME FILL-ORIGIN LEVEL: 0 DIFFERENT FILL-ORIGIN LEVEL: 0
L0D AVERAGE MISS LATENCY: 19.1377 cycles
L0D AVERAGE MISS LATENCY LOAD: 19.1377 cycles
L0D AVERAGE MISS LATENCY PREFETCH: -nan cycles
L0D AVERAGE MSHR OCCUPANCY: 1.35488
L0D MSHR FULL: 0.0490971
L0D RQ	ACCESS:   68382879	FORWARD:          0	MERGED:   13371624	TO_CACHE:   55011255
L0D WQ	ACCESS:   17802933	FORWARD:          0	MERGED:          0	TO_CACHE:   17802933

L1D SPEC fills:          0  NON-SPEC fills:    3169520
L1D Test counter :          0
L1D Leapfrog:          0
L1D MSHR merge:     528914
L1D TOTAL     ACCESS:  139159282  HIT:  118393301  MISS:   20765981  HIT %:    85.0775  MISS %:    14.9225   MPKI: 103.83
L1D LOAD      TOTAL       ACCESS:   49550184  HIT:   39624827  MISS:    9925357  HIT %:    79.9691  MISS %:    20.0309   MPKI: 49.6268
L1D LOAD      NON_SPEC    ACCESS:   15443384  HIT:   12273864  MISS:    3169520  HIT %:    79.4765  MISS %:    20.5235   MPKI: 15.8476
L1D LOAD      SPEC        ACCESS:   34106800  HIT:   27350963  MISS:    6755837  HIT %:    80.1921  MISS %:    19.8079   MPKI: 33.7792
L1D RFO       NON_SPEC    ACCESS:   15395389  HIT:   14786483  MISS:     608906  HIT %:    96.0449  MISS %:    3.95512   MPKI: 3.04453
L1D PREFETCH  NON_SPEC    ACCESS:   28341885  HIT:   24853656  MISS:    3488229  HIT %:    87.6923  MISS %:    12.3077   MPKI: 17.4411
L1D COMMIT LOAD NON_SPEC    ACCESS:   12347125  HIT:   11952838  MISS:     394287  HIT %:    96.8066  MISS %:    3.19335   MPKI: 1.97144
L1D COMMIT WRITE NON_SPEC    ACCESS:   33524699  HIT:   27175497  MISS:    6349202  HIT %:    81.0611  MISS %:    18.9389   MPKI: 31.746
L1D PREFETCH  REQUESTED:   54702993  ISSUED:   48525970  USEFUL:    3466118  USELESS:      22119
L1D USEFUL LOAD PREFETCHES:    3466118 PREFETCH ISSUED TO LOWER LEVEL:    7699114  ACCURACY: 45.0197
L1D TIMELY PREFETCHES:    3466118 LATE PREFETCHES: 525561 DROPPED PREFETCHES: 3526576
L1D COMMIT LATE PREFETCHES: 0 NORMAL LATE: 525561 MISSED OPPORTUNITY: 0 UNCOVERED: 9399796
L1D PREFETCHES SAME FILL-ORIGIN LEVEL: 4013790 DIFFERENT FILL-ORIGIN LEVEL: 3685324
L1D AVERAGE MISS LATENCY: 66.7168 cycles
L1D AVERAGE MISS LATENCY LOAD: 69.0923 cycles
L1D AVERAGE MISS LATENCY PREFETCH: 190.1 cycles
L1D AVERAGE MSHR OCCUPANCY: 1.79149
L1D MSHR FULL: 0.0387009
L1D RQ	ACCESS:   68295776	FORWARD:          0	MERGED:    5916565	TO_CACHE:   61907196
L1D WQ	ACCESS:   51333997	FORWARD:     472015	MERGED:    1332341	TO_CACHE:   50001656
L1D PQ	ACCESS:   48525970	FORWARD:          0	MERGED:    9086427	TO_CACHE:   39439543

L1D UNIQUE REGIONS ACCESSED: 0
L1D REGIONS CONFLICTS: 0
L1D Cross Page Prefetch Requests: 6461454
L1D Same Page Prefetch Requests: 50315977
L1D ROI Sum of L1D PQ occupancy: 1184650157
L1D PREFETCHES PUSHED FROM L2C: 0
L1I SPEC fills:          0  NON-SPEC fills:          0
L1I Test counter :          0
L1I Leapfrog:          0
L1I MSHR merge:          0
L1I TOTAL     ACCESS:   36100427  HIT:   36100425  MISS:          2  HIT %:        100  MISS %: 5.5401e-06   MPKI: 1e-05
L1I LOAD      TOTAL       ACCESS:   36100427  HIT:   36100425  MISS:          2  HIT %:        100  MISS %: 5.5401e-06   MPKI: 1e-05
L1I LOAD      NON_SPEC    ACCESS:   36100427  HIT:   36100425  MISS:          2  HIT %:        100  MISS %: 5.5401e-06   MPKI: 1e-05
L1I PREFETCH  REQUESTED:          0  ISSUED:          0  USEFUL:          0  USELESS:          0
L1I USEFUL LOAD PREFETCHES:          0 PREFETCH ISSUED TO LOWER LEVEL:          0  ACCURACY: -nan
L1I TIMELY PREFETCHES:          0 LATE PREFETCHES: 0 DROPPED PREFETCHES: 0
L1I COMMIT LATE PREFETCHES: 0 NORMAL LATE: 0 MISSED OPPORTUNITY: 0 UNCOVERED: 2
L1I PREFETCHES SAME FILL-ORIGIN LEVEL: 0 DIFFERENT FILL-ORIGIN LEVEL: 0
L1I AVERAGE MISS LATENCY: 214 cycles
L1I AVERAGE MISS LATENCY LOAD: 214 cycles
L1I AVERAGE MISS LATENCY PREFETCH: -nan cycles
L1I AVERAGE MSHR OCCUPANCY: 2.77005e-08
L1I MSHR FULL: 0
L1I RQ	ACCESS:   55268719	FORWARD:          0	MERGED:   19168293	TO_CACHE:   36100426

BTB SPEC fills:          0  NON-SPEC fills:          0
BTB Test counter :          0
BTB Leapfrog:          0
BTB MSHR merge:          0
BTB TOTAL     ACCESS:   49743916  HIT:   48131262  MISS:    1612654  HIT %:    96.7581  MISS %:    3.24191   MPKI: 8.06327
BTB BRANCH_DIRECT_JUMP	ACCESS:    5836928  HIT:    5836891  MISS:         37
BTB BRANCH_INDIRECT	ACCESS:          0  HIT:          0  MISS:          0
BTB BRANCH_CONDITIONAL	ACCESS:   36112465  HIT:   36112386  MISS:         79
BTB BRANCH_DIRECT_CALL	ACCESS:    3647058  HIT:    3647040  MISS:         18
BTB BRANCH_INDIRECT_CALL	ACCESS:     250202  HIT:     250194  MISS:          8
BTB BRANCH_RETURN	ACCESS:    3897263  HIT:    2284751  MISS:    1612512
BTB BRANCH_OTHER ACCESS:          0  HIT:          0  MISS:          0

L2C SPEC fills:          0  NON-SPEC fills:    2277211
L2C Test counter :          0
L2C Leapfrog:          0
L2C MSHR merge:      51383
L2C TOTAL     ACCESS:   33944462  HIT:   17671572  MISS:   16272890  HIT %:    52.0603  MISS %:    47.9397   MPKI: 81.3645
L2C LOAD      TOTAL       ACCESS:    9399609  HIT:    2377780  MISS:    7021829  HIT %:    25.2966  MISS %:    74.7034   MPKI: 35.1091
L2C LOAD      NON_SPEC    ACCESS:    3168566  HIT:     891353  MISS:    2277213  HIT %:    28.1311  MISS %:    71.8689   MPKI: 11.3861
L2C LOAD      SPEC        ACCESS:    6231043  HIT:    1486427  MISS:    4744616  HIT %:    23.8552  MISS %:    76.1448   MPKI: 23.7231
L2C RFO       NON_SPEC    ACCESS:     608901  HIT:     339353  MISS:     269548  HIT %:     55.732  MISS %:     44.268   MPKI: 1.34774
L2C PREFETCH  NON_SPEC    ACCESS:    6666838  HIT:    2555030  MISS:    4111808  HIT %:    38.3245  MISS %:    61.6755   MPKI: 20.559
L2C WRITEBACK NON_SPEC    ACCESS:     669778  HIT:     669329  MISS:        449  HIT %:     99.933  MISS %:  0.0670371   MPKI: 0.002245
L2C CLEAN_EVICTION NON_SPEC    ACCESS:   10110886  HIT:    5535400  MISS:    4575486  HIT %:    54.7469  MISS %:    45.2531   MPKI: 22.8774
L2C COMMIT LOAD NON_SPEC    ACCESS:     394060  HIT:     138394  MISS:     255666  HIT %:      35.12  MISS %:      64.88   MPKI: 1.27833
L2C LOAD TRANSLATION NON_SPEC    ACCESS:     499651  HIT:     471028  MISS:      28623  HIT %:    94.2714  MISS %:     5.7286   MPKI: 0.143115
L2C TRANSLATION FROM L1D PREFETCHER NON_SPEC    ACCESS:    5594739  HIT:    5585258  MISS:       9481  HIT %:    99.8305  MISS %:   0.169463   MPKI: 0.047405
L2C PREFETCH  REQUESTED:          0  ISSUED:          0  USEFUL:     424527  USELESS:    3697084
L2C USEFUL LOAD PREFETCHES:     424527 PREFETCH ISSUED TO LOWER LEVEL:    4163205  ACCURACY: 10.1971
L2C TIMELY PREFETCHES:     424527 LATE PREFETCHES: 51397 DROPPED PREFETCHES: 0
L2C COMMIT LATE PREFETCHES: 0 NORMAL LATE: 51397 MISSED OPPORTUNITY: 0 UNCOVERED: 6970432
L2C PREFETCHES SAME FILL-ORIGIN LEVEL: 1247607 DIFFERENT FILL-ORIGIN LEVEL: 0
L2C AVERAGE MISS LATENCY: 86.2944 cycles
L2C AVERAGE MISS LATENCY LOAD: 68.2162 cycles
L2C AVERAGE MISS LATENCY PREFETCH: 218.666 cycles
L2C AVERAGE MSHR OCCUPANCY: 3.80412
L2C MSHR FULL: 0
L2C RQ	ACCESS:   16497381	FORWARD:          0	MERGED:          0	TO_CACHE:   16496960
L2C WQ	ACCESS:   10780670	FORWARD:        421	MERGED:          6	TO_CACHE:   10780664
L2C PQ	ACCESS:    7699114	FORWARD:          0	MERGED:        714	TO_CACHE:    7698400

L2C Instructions Evicting Data 2
L2C Translations Evicting Data 38008
L2C Data Evicting Data 6891261
L2C Instructions Evicting Instructions 0
L2C Translations Evicting Instructions 0
L2C Data Evicting Instructions 2
L2C Instructions Evicting Translations 0
L2C Translations Evicting Translations 96
L2C Data Evicting Translations 22970
L2C Dense regions hint from L2: 0
PSCL5 SPEC fills:          0  NON-SPEC fills:          0
PSCL5 Test counter :          0
PSCL5 Leapfrog:          0
PSCL5 MSHR merge:          0
PSCL5 TOTAL     ACCESS:          0  HIT:          0  MISS:          0  HIT %:       -nan  MISS %:       -nan   MPKI: 0
PSCL5 PREFETCH  REQUESTED:          0  ISSUED:          0  USEFUL:          0  USELESS:          0
PSCL5 USEFUL LOAD PREFETCHES:          0 PREFETCH ISSUED TO LOWER LEVEL:          0  ACCURACY: -nan
PSCL5 TIMELY PREFETCHES:          0 LATE PREFETCHES: 0 DROPPED PREFETCHES: 0
PSCL5 COMMIT LATE PREFETCHES: 0 NORMAL LATE: 0 MISSED OPPORTUNITY: 0 UNCOVERED: 0
PSCL5 PREFETCHES SAME FILL-ORIGIN LEVEL: 0 DIFFERENT FILL-ORIGIN LEVEL: 0

PSCL4 SPEC fills:          0  NON-SPEC fills:          0
PSCL4 Test counter :          0
PSCL4 Leapfrog:          0
PSCL4 MSHR merge:          0
PSCL4 TOTAL     ACCESS:          0  HIT:          0  MISS:          0  HIT %:       -nan  MISS %:       -nan   MPKI: 0
PSCL4 PREFETCH  REQUESTED:          0  ISSUED:          0  USEFUL:          0  USELESS:          0
PSCL4 USEFUL LOAD PREFETCHES:          0 PREFETCH ISSUED TO LOWER LEVEL:          0  ACCURACY: -nan
PSCL4 TIMELY PREFETCHES:          0 LATE PREFETCHES: 0 DROPPED PREFETCHES: 0
PSCL4 COMMIT LATE PREFETCHES: 0 NORMAL LATE: 0 MISSED OPPORTUNITY: 0 UNCOVERED: 0
PSCL4 PREFETCHES SAME FILL-ORIGIN LEVEL: 0 DIFFERENT FILL-ORIGIN LEVEL: 0

PSCL3 SPEC fills:          0  NON-SPEC fills:          0
PSCL3 Test counter :          0
PSCL3 Leapfrog:          0
PSCL3 MSHR merge:          0
PSCL3 TOTAL     ACCESS:          0  HIT:          0  MISS:          0  HIT %:       -nan  MISS %:       -nan   MPKI: 0
PSCL3 PREFETCH  REQUESTED:          0  ISSUED:          0  USEFUL:          0  USELESS:          0
PSCL3 USEFUL LOAD PREFETCHES:          0 PREFETCH ISSUED TO LOWER LEVEL:          0  ACCURACY: -nan
PSCL3 TIMELY PREFETCHES:          0 LATE PREFETCHES: 0 DROPPED PREFETCHES: 0
PSCL3 COMMIT LATE PREFETCHES: 0 NORMAL LATE: 0 MISSED OPPORTUNITY: 0 UNCOVERED: 0
PSCL3 PREFETCHES SAME FILL-ORIGIN LEVEL: 0 DIFFERENT FILL-ORIGIN LEVEL: 0

PSCL2 SPEC fills:          0  NON-SPEC fills:          0
PSCL2 Test counter :          0
PSCL2 Leapfrog:          0
PSCL2 MSHR merge:          0
PSCL2 TOTAL     ACCESS:          0  HIT:          0  MISS:          0  HIT %:       -nan  MISS %:       -nan   MPKI: 0
PSCL2 PREFETCH  REQUESTED:          0  ISSUED:          0  USEFUL:          0  USELESS:          0
PSCL2 USEFUL LOAD PREFETCHES:          0 PREFETCH ISSUED TO LOWER LEVEL:          0  ACCURACY: -nan
PSCL2 TIMELY PREFETCHES:          0 LATE PREFETCHES: 0 DROPPED PREFETCHES: 0
PSCL2 COMMIT LATE PREFETCHES: 0 NORMAL LATE: 0 MISSED OPPORTUNITY: 0 UNCOVERED: 0
PSCL2 PREFETCHES SAME FILL-ORIGIN LEVEL: 0 DIFFERENT FILL-ORIGIN LEVEL: 0

LLC SPEC fills:          0  NON-SPEC fills:     377817
LLC Test counter :          0
LLC Leapfrog:          0
LLC MSHR merge:          0
LLC TOTAL     ACCESS:   20747381  HIT:   13957278  MISS:    6790103  HIT %:    67.2725  MISS %:    32.7275   MPKI: 33.9505
LLC LOAD      TOTAL       ACCESS:    6970282  HIT:    5532983  MISS:    1437299  HIT %:    79.3796  MISS %:    20.6204   MPKI: 7.18649
LLC LOAD      NON_SPEC    ACCESS:    2277086  HIT:    1899267  MISS:     377819  HIT %:    83.4078  MISS %:    16.5922   MPKI: 1.88909
LLC LOAD      SPEC        ACCESS:    4693196  HIT:    3633716  MISS:    1059480  HIT %:    77.4252  MISS %:    22.5748   MPKI: 5.2974
LLC RFO       NON_SPEC    ACCESS:     269543  HIT:     263113  MISS:       6430  HIT %:    97.6145  MISS %:    2.38552   MPKI: 0.03215
LLC PREFETCH  NON_SPEC    ACCESS:    4163205  HIT:      51027  MISS:    4112178  HIT %:    1.22567  MISS %:    98.7743   MPKI: 20.5609
LLC WRITEBACK NON_SPEC    ACCESS:     309137  HIT:     302949  MISS:       6188  HIT %:    97.9983  MISS %:     2.0017   MPKI: 0.03094
LLC CLEAN_EVICTION NON_SPEC    ACCESS:    8741506  HIT:    7550072  MISS:    1191434  HIT %:    86.3704  MISS %:    13.6296   MPKI: 5.95717
LLC COMMIT LOAD NON_SPEC    ACCESS:     255604  HIT:     235264  MISS:      20340  HIT %:    92.0424  MISS %:    7.95762   MPKI: 0.1017
LLC LOAD TRANSLATION NON_SPEC    ACCESS:      28623  HIT:      21455  MISS:       7168  HIT %:    74.9572  MISS %:    25.0428   MPKI: 0.03584
LLC TRANSLATION FROM L1D PREFETCHER NON_SPEC    ACCESS:       9481  HIT:        415  MISS:       9066  HIT %:    4.37718  MISS %:    95.6228   MPKI: 0.04533
LLC PREFETCH  REQUESTED:          0  ISSUED:          0  USEFUL:     106086  USELESS:    4014552
LLC USEFUL LOAD PREFETCHES:     106086 PREFETCH ISSUED TO LOWER LEVEL:    4112178  ACCURACY: 2.5798
LLC TIMELY PREFETCHES:     106086 LATE PREFETCHES: 0 DROPPED PREFETCHES: 0
LLC COMMIT LATE PREFETCHES: 0 NORMAL LATE: 0 MISSED OPPORTUNITY: 0 UNCOVERED: 1437299
LLC PREFETCHES SAME FILL-ORIGIN LEVEL: 0 DIFFERENT FILL-ORIGIN LEVEL: 0
LLC AVERAGE MISS LATENCY: 161.892 cycles
LLC AVERAGE MISS LATENCY LOAD: 209.672 cycles
LLC AVERAGE MISS LATENCY PREFETCH: 191.847 cycles
LLC AVERAGE MSHR OCCUPANCY: 2.97461
LLC MSHR FULL: 0
LLC RQ	ACCESS:    7533750	FORWARD:          0	MERGED:          0	TO_CACHE:    7533533
LLC WQ	ACCESS:    9050643	FORWARD:        217	MERGED:          0	TO_CACHE:    9050643
LLC PQ	ACCESS:    4163205	FORWARD:          0	MERGED:          0	TO_CACHE:    4163205

LLC Dense regions hint to LLC: 0

RAW hits: 2270102
Loads Generated: 70652983
Loads sent to L1D: 68382879
Stores Generated: 17802933
Stores sent to L1D: 17802933
Major fault: 0 Minor fault: 80635
Allocated PAGES: 80635
Total Load insts: 84735870
Total Non-spec loads: 17666874
Percentage of speculative loads: 79.1507

LeapFrogging counter: 3445019
Commit hits: 33531064 miss: 18742160
Commit hit %: 64.1458 miss %: 35.8542
Commits not translated: 0
Loads retired: 9925357
Stores retired: 17802933
Cache fills: 9925357
L1D response latency: 69.0923 cycles
Load retirement latency: 190.528 cycles
OOO test counter: 0
Discarded buffer inserts: 33531064 hits: 41069 hit %: 0.12248
Filter prediction accuracy: -nan
LATENCY_FILL: 68.6164 9918110

DRAM Statistics
 CHANNEL 0
 RQ ROW_BUFFER_HIT:    1308843  ROW_BUFFER_MISS:    4282333
 DBUS_CONGESTED:       2760
 WQ ROW_BUFFER_HIT:    1323083  ROW_BUFFER_MISS:    3815033  FULL:      31578

 AVG_CONGESTED_CYCLE: 5
 All warmup complete: 2
Channel 0 Bank busy for read cycles: 0
Channel 0 Bank busy for write cycles: 0
Channel 0
Rank 0
0banks busy for read cycles: 330051016
0banks busy for write cycles: 108793
1banks busy for read cycles: 89623628
1banks busy for write cycles: 15775173
2banks busy for read cycles: 52860228
2banks busy for write cycles: 7129069
3banks busy for read cycles: 31302961
3banks busy for write cycles: 6841378
4banks busy for read cycles: 21943684
4banks busy for write cycles: 7428167
5banks busy for read cycles: 16827499
5banks busy for write cycles: 8799684
6banks busy for read cycles: 13107647
6banks busy for write cycles: 11664126
7banks busy for read cycles: 9634105
7banks busy for write cycles: 21101426
8banks busy for read cycles: 13637728
8banks busy for write cycles: 79454433

CPU 0 Branch Prediction Accuracy: 94.5902% MPKI: 13.9808 Average ROB Occupancy at Mispredict: 25.6046
Branch types
NOT_BRANCH: 148312419 74.1562%
BRANCH_DIRECT_JUMP: 5836928 2.91846%
BRANCH_INDIRECT: 0 0%
BRANCH_CONDITIONAL: 38055866 19.0279%
BRANCH_DIRECT_CALL: 3647058 1.82353%
BRANCH_INDIRECT_CALL: 250202 0.125101%
BRANCH_RETURN: 3897263 1.94863%
BRANCH_OTHER: 0 0%

DRAM PAGES: 1048576
Allocated PAGES: 80635
