
*** ChampSim Multicore Out-of-Order Simulator ***

Warmup Instructions: 50000000
Simulation Instructions: 200000000
Number of CPUs: 1
LLC sets: 2048
LLC ways: 16
L0D sets: 16
L0D ways: 2
ROB size: 352
LQ size: 128
SQ size: 72
Secure Berti: OFF
Berti: OFF
Berti Fill: OFF
On commit prefetching: OFF
Hit-based filter: OFF
Time-guarding: ON
Free-slotting: ON
Leap-frogging: ON
Train prefetcher on L0D bypass: OFF
No translation penalty for prefetchers: OFF
Prefetch to L0D only: OFF
Prefetch to L1D only: OFF
Clean evictions: ON
Commit loads: ON
Commit write: ON
Fill commit loads to L2C, LLC: ON
DRAM IO FREQUENCY: 6400
ROB SIZE: 352
Off-chip DRAM Size: 4096 MB Channels: 1 Width: 64-bit Data Rate: 6400 MT/s
CPU 0 runs /home/sumon/secure_berti/GhostMinion/../../traces/spec/607.cactuBSSN_s-3477B.champsimtrace.xz
.xz
BTB has LRU replacement policy
ITLB has LRU replacement policy
DTLB has LRU replacement policy
STLB has LRU replacement policy
L1I has LRU replacement policy
L0D has LRU replacement policy
History Sets: 8
History Ways: 16
BERTI Size: 16
BERTI Stride Size: 16
L1D has LRU replacement policy
L2C has LRU replacement policy
LLC has LRU replacement policy
Heartbeat CPU 0 instructions: 10000000 cycles: 4588708 heartbeat IPC: 2.17926 cumulative IPC: 2.17926 (Simulation time: 0 hr 0 min 45 sec) 
Heartbeat CPU 0 instructions: 20000001 cycles: 9191693 heartbeat IPC: 2.1725 cumulative IPC: 2.17588 (Simulation time: 0 hr 1 min 29 sec) 
Heartbeat CPU 0 instructions: 30000000 cycles: 13790673 heartbeat IPC: 2.1744 cumulative IPC: 2.17538 (Simulation time: 0 hr 2 min 13 sec) 
Heartbeat CPU 0 instructions: 40000003 cycles: 18368400 heartbeat IPC: 2.18449 cumulative IPC: 2.17765 (Simulation time: 0 hr 2 min 57 sec) 
Heartbeat CPU 0 instructions: 50000002 cycles: 22965542 heartbeat IPC: 2.17526 cumulative IPC: 2.17717 (Simulation time: 0 hr 3 min 44 sec) 

Warmup complete CPU 0 instructions: 50000002 cycles: 22965542 (Simulation time: 0 hr 3 min 44 sec) 

Heartbeat CPU 0 instructions: 60000000 cycles: 40496327 heartbeat IPC: 0.570425 cumulative IPC: 0.570425 (Simulation time: 0 hr 4 min 41 sec) 
Heartbeat CPU 0 instructions: 70000002 cycles: 57973595 heartbeat IPC: 0.572172 cumulative IPC: 0.571297 (Simulation time: 0 hr 5 min 37 sec) 
Heartbeat CPU 0 instructions: 80000003 cycles: 75576129 heartbeat IPC: 0.5681 cumulative IPC: 0.570227 (Simulation time: 0 hr 6 min 34 sec) 
Heartbeat CPU 0 instructions: 90000002 cycles: 93096009 heartbeat IPC: 0.57078 cumulative IPC: 0.570365 (Simulation time: 0 hr 7 min 29 sec) 
Heartbeat CPU 0 instructions: 100000001 cycles: 110565042 heartbeat IPC: 0.572441 cumulative IPC: 0.57078 (Simulation time: 0 hr 8 min 26 sec) 
Heartbeat CPU 0 instructions: 110000000 cycles: 127983363 heartbeat IPC: 0.574108 cumulative IPC: 0.571332 (Simulation time: 0 hr 9 min 23 sec) 
Heartbeat CPU 0 instructions: 120000002 cycles: 145523412 heartbeat IPC: 0.570124 cumulative IPC: 0.571159 (Simulation time: 0 hr 10 min 19 sec) 
Heartbeat CPU 0 instructions: 130000000 cycles: 163076181 heartbeat IPC: 0.569711 cumulative IPC: 0.570977 (Simulation time: 0 hr 11 min 16 sec) 
Heartbeat CPU 0 instructions: 140000000 cycles: 180640078 heartbeat IPC: 0.56935 cumulative IPC: 0.570796 (Simulation time: 0 hr 12 min 12 sec) 
Heartbeat CPU 0 instructions: 150000001 cycles: 198006936 heartbeat IPC: 0.575809 cumulative IPC: 0.571293 (Simulation time: 0 hr 13 min 8 sec) 
Heartbeat CPU 0 instructions: 160000001 cycles: 215637661 heartbeat IPC: 0.567192 cumulative IPC: 0.570918 (Simulation time: 0 hr 14 min 4 sec) 
Heartbeat CPU 0 instructions: 170000000 cycles: 233077993 heartbeat IPC: 0.573384 cumulative IPC: 0.571123 (Simulation time: 0 hr 14 min 57 sec) 
Heartbeat CPU 0 instructions: 180000000 cycles: 250616527 heartbeat IPC: 0.570173 cumulative IPC: 0.57105 (Simulation time: 0 hr 15 min 49 sec) 
Heartbeat CPU 0 instructions: 190000000 cycles: 267910626 heartbeat IPC: 0.578232 cumulative IPC: 0.571557 (Simulation time: 0 hr 16 min 42 sec) 
Heartbeat CPU 0 instructions: 200000000 cycles: 286028803 heartbeat IPC: 0.551932 cumulative IPC: 0.570205 (Simulation time: 0 hr 17 min 36 sec) 
Heartbeat CPU 0 instructions: 210000001 cycles: 303662877 heartbeat IPC: 0.567084 cumulative IPC: 0.570009 (Simulation time: 0 hr 18 min 27 sec) 
Heartbeat CPU 0 instructions: 220000000 cycles: 321140781 heartbeat IPC: 0.572151 cumulative IPC: 0.570135 (Simulation time: 0 hr 19 min 18 sec) 
Heartbeat CPU 0 instructions: 230000000 cycles: 338562936 heartbeat IPC: 0.573982 cumulative IPC: 0.570347 (Simulation time: 0 hr 20 min 8 sec) 
Heartbeat CPU 0 instructions: 240000001 cycles: 356147805 heartbeat IPC: 0.568671 cumulative IPC: 0.570258 (Simulation time: 0 hr 20 min 57 sec) 
Heartbeat CPU 0 instructions: 250000002 cycles: 373689184 heartbeat IPC: 0.570081 cumulative IPC: 0.57025 (Simulation time: 0 hr 21 min 44 sec) 
Finished CPU 0 instructions: 200000000 cycles: 350723642 cumulative IPC: 0.57025 (Simulation time: 0 hr 21 min 44 sec) 
 Instruction ID: 250000026

ChampSim completed all CPUs

Region of Interest Statistics

CPU 0 cumulative IPC: 0.57025 instructions: 200000000 cycles: 350723642
ITLB SPEC fills:          0  NON-SPEC fills:          0
ITLB Test counter :          0
ITLB Leapfrog:          0
ITLB MSHR merge:          0
ITLB TOTAL     ACCESS:   28738025  HIT:   28738025  MISS:          0  HIT %:        100  MISS %:          0   MPKI: 0
ITLB LOAD TRANSLATION NON_SPEC    ACCESS:   28738025  HIT:   28738025  MISS:          0  HIT %:        100  MISS %:          0   MPKI: 0
ITLB PREFETCH  REQUESTED:          0  ISSUED:          0  USEFUL:          0  USELESS:          0
ITLB USEFUL LOAD PREFETCHES:          0 PREFETCH ISSUED TO LOWER LEVEL:          0  ACCURACY: -nan
ITLB TIMELY PREFETCHES:          0 LATE PREFETCHES: 0 DROPPED PREFETCHES: 0
ITLB COMMIT LATE PREFETCHES: 0 NORMAL LATE: 0 MISSED OPPORTUNITY: 0 UNCOVERED: 0
ITLB PREFETCHES SAME FILL-ORIGIN LEVEL: 0 DIFFERENT FILL-ORIGIN LEVEL: 0
ITLB AVERAGE MISS LATENCY: -nan cycles
ITLB AVERAGE MISS LATENCY LOAD: -nan cycles
ITLB AVERAGE MISS LATENCY PREFETCH: -nan cycles
ITLB AVERAGE MSHR OCCUPANCY: 0
ITLB MSHR FULL: 0
ITLB RQ	ACCESS:   34853285	FORWARD:          0	MERGED:    6115260	TO_CACHE:   28738025

DTLB SPEC fills:          0  NON-SPEC fills:          0
DTLB Test counter :          0
DTLB Leapfrog:          0
DTLB MSHR merge:          0
DTLB TOTAL     ACCESS:   61927291  HIT:   54351777  MISS:    7575514  HIT %:    87.7671  MISS %:    12.2329   MPKI: 37.8776
DTLB LOAD TRANSLATION NON_SPEC    ACCESS:   61927291  HIT:   54351777  MISS:    7575514  HIT %:    87.7671  MISS %:    12.2329   MPKI: 37.8776
DTLB PREFETCH  REQUESTED:          0  ISSUED:          0  USEFUL:          0  USELESS:          0
DTLB USEFUL LOAD PREFETCHES:          0 PREFETCH ISSUED TO LOWER LEVEL:          0  ACCURACY: -nan
DTLB TIMELY PREFETCHES:          0 LATE PREFETCHES: 0 DROPPED PREFETCHES: 0
DTLB COMMIT LATE PREFETCHES: 0 NORMAL LATE: 0 MISSED OPPORTUNITY: 0 UNCOVERED: 0
DTLB PREFETCHES SAME FILL-ORIGIN LEVEL: 0 DIFFERENT FILL-ORIGIN LEVEL: 0
DTLB AVERAGE MISS LATENCY: 10.0467 cycles
DTLB AVERAGE MISS LATENCY LOAD: -nan cycles
DTLB AVERAGE MISS LATENCY PREFETCH: -nan cycles
DTLB AVERAGE MSHR OCCUPANCY: 0.782388
DTLB MSHR FULL: 0.0213573
DTLB RQ	ACCESS:   82890346	FORWARD:          0	MERGED:   19999963	TO_CACHE:   62890383

STLB SPEC fills:          0  NON-SPEC fills:          0
STLB Test counter :          0
STLB Leapfrog:          0
STLB MSHR merge:          0
STLB TOTAL     ACCESS:    7707559  HIT:    7699245  MISS:       8314  HIT %:    99.8921  MISS %:   0.107868   MPKI: 0.04157
STLB LOAD TRANSLATION NON_SPEC    ACCESS:    7575514  HIT:    7567364  MISS:       8150  HIT %:    99.8924  MISS %:   0.107583   MPKI: 0.04075
STLB TRANSLATION FROM L1D PREFETCHER NON_SPEC    ACCESS:     132045  HIT:     131881  MISS:        164  HIT %:    99.8758  MISS %:     0.1242   MPKI: 0.00082
STLB PREFETCH  REQUESTED:          0  ISSUED:          0  USEFUL:        161  USELESS:          2
STLB USEFUL LOAD PREFETCHES:        161 PREFETCH ISSUED TO LOWER LEVEL:          0  ACCURACY: inf
STLB TIMELY PREFETCHES:        161 LATE PREFETCHES: 0 DROPPED PREFETCHES: 63009
STLB COMMIT LATE PREFETCHES: 0 NORMAL LATE: 0 MISSED OPPORTUNITY: 0 UNCOVERED: 0
STLB PREFETCHES SAME FILL-ORIGIN LEVEL: 0 DIFFERENT FILL-ORIGIN LEVEL: 0
STLB AVERAGE MISS LATENCY: 635.48 cycles
STLB AVERAGE MISS LATENCY LOAD: -nan cycles
STLB AVERAGE MISS LATENCY PREFETCH: -nan cycles
STLB AVERAGE MSHR OCCUPANCY: 0.0136523
STLB MSHR FULL: 0
STLB RQ	ACCESS:    7852622	FORWARD:          0	MERGED:      81451	TO_CACHE:    7771171

STLB Hit, L1D data hit: 0
STLB Hit, L2C data hit: 0
STLB Hit, LLC data hit: 0
STLB Hit, LLC data miss: 0
STLB STLB hints to L2: 0
L0D SPEC fills:   46390009  NON-SPEC fills:          0
L0D TimeGuard Request with older TS:    2871674 Restricted eviction:    2954863 read:    2806664
L0D Test counter :          0
L0D Leapfrog:          0
L0D MSHR merge:    2754808
L0D TOTAL     ACCESS:   64119273  HIT:    8777011  MISS:   55342262  HIT %:    13.6886  MISS %:    86.3114   MPKI: 276.711
L0D LOAD      TOTAL       ACCESS:   64119273  HIT:    8777011  MISS:   55342262  HIT %:    13.6886  MISS %:    86.3114   MPKI: 276.711
L0D LOAD      NON_SPEC    ACCESS:    6347375  HIT:     349381  MISS:    5997994  HIT %:    5.50434  MISS %:    94.4957   MPKI: 29.99
L0D LOAD      SPEC        ACCESS:   57771898  HIT:    8427630  MISS:   49344268  HIT %:    14.5878  MISS %:    85.4122   MPKI: 246.721
L0D PREFETCH  REQUESTED:          0  ISSUED:          0  USEFUL:          0  USELESS:          0
L0D USEFUL LOAD PREFETCHES:          0 PREFETCH ISSUED TO LOWER LEVEL:          0  ACCURACY: -nan
L0D TIMELY PREFETCHES:          0 LATE PREFETCHES: 0 DROPPED PREFETCHES: 0
L0D COMMIT LATE PREFETCHES: 0 NORMAL LATE: 0 MISSED OPPORTUNITY: 0 UNCOVERED: 55342262
L0D PREFETCHES SAME FILL-ORIGIN LEVEL: 0 DIFFERENT FILL-ORIGIN LEVEL: 0
L0D AVERAGE MISS LATENCY: 15.509 cycles
L0D AVERAGE MISS LATENCY LOAD: 15.509 cycles
L0D AVERAGE MISS LATENCY PREFETCH: -nan cycles
L0D AVERAGE MSHR OCCUPANCY: 5.35754
L0D MSHR FULL: 0.457699
L0D RQ	ACCESS:   77325793	FORWARD:          0	MERGED:   10451724	TO_CACHE:   66874069
L0D WQ	ACCESS:   16016277	FORWARD:          0	MERGED:          0	TO_CACHE:   16016277

L1D SPEC fills:          0  NON-SPEC fills:     619012
L1D Test counter :          0
L1D Leapfrog:          0
L1D MSHR merge:      96517
L1D TOTAL     ACCESS:  133404120  HIT:  104490177  MISS:   28913943  HIT %:     78.326  MISS %:     21.674   MPKI: 144.57
L1D LOAD      TOTAL       ACCESS:   55245965  HIT:   40818113  MISS:   14427852  HIT %:    73.8843  MISS %:    26.1157   MPKI: 72.1393
L1D LOAD      NON_SPEC    ACCESS:    5981505  HIT:    5362493  MISS:     619012  HIT %:    89.6512  MISS %:    10.3488   MPKI: 3.09506
L1D LOAD      SPEC        ACCESS:   49264460  HIT:   35455620  MISS:   13808840  HIT %:      71.97  MISS %:      28.03   MPKI: 69.0442
L1D RFO       NON_SPEC    ACCESS:   14667005  HIT:   13462275  MISS:    1204730  HIT %:    91.7861  MISS %:    8.21388   MPKI: 6.02365
L1D PREFETCH  NON_SPEC    ACCESS:      60300  HIT:      53366  MISS:       6934  HIT %:    88.5008  MISS %:    11.4992   MPKI: 0.03467
L1D COMMIT LOAD NON_SPEC    ACCESS:   19574739  HIT:   16766193  MISS:    2808546  HIT %:    85.6522  MISS %:    14.3478   MPKI: 14.0427
L1D COMMIT WRITE NON_SPEC    ACCESS:   43856111  HIT:   33390230  MISS:   10465881  HIT %:    76.1359  MISS %:    23.8641   MPKI: 52.3294
L1D PREFETCH  REQUESTED:     277164  ISSUED:     277164  USEFUL:        606  USELESS:       6328
L1D USEFUL LOAD PREFETCHES:        606 PREFETCH ISSUED TO LOWER LEVEL:     123684  ACCURACY: 0.489958
L1D TIMELY PREFETCHES:        606 LATE PREFETCHES: 221 DROPPED PREFETCHES: 91415
L1D COMMIT LATE PREFETCHES: 0 NORMAL LATE: 221 MISSED OPPORTUNITY: 0 UNCOVERED: 14427631
L1D PREFETCHES SAME FILL-ORIGIN LEVEL: 7155 DIFFERENT FILL-ORIGIN LEVEL: 116529
L1D AVERAGE MISS LATENCY: 14.6164 cycles
L1D AVERAGE MISS LATENCY LOAD: 17.9274 cycles
L1D AVERAGE MISS LATENCY PREFETCH: 31.9401 cycles
L1D AVERAGE MSHR OCCUPANCY: 3.05543
L1D MSHR FULL: 0.100779
L1D RQ	ACCESS:   82374845	FORWARD:          0	MERGED:    7276933	TO_CACHE:   75093139
L1D WQ	ACCESS:   59872395	FORWARD:       4773	MERGED:    1195020	TO_CACHE:   58677375
L1D PQ	ACCESS:     277164	FORWARD:          0	MERGED:         56	TO_CACHE:     277108

L1D UNIQUE REGIONS ACCESSED: 0
L1D REGIONS CONFLICTS: 0
L1D Cross Page Prefetch Requests: 318336
L1D Same Page Prefetch Requests: 27309
L1D ROI Sum of L1D PQ occupancy: 9532347
L1D PREFETCHES PUSHED FROM L2C: 0
L1I SPEC fills:          0  NON-SPEC fills:          0
L1I Test counter :          0
L1I Leapfrog:          0
L1I MSHR merge:    2852890
L1I TOTAL     ACCESS:   32000393  HIT:   26215964  MISS:    5784429  HIT %:    81.9239  MISS %:    18.0761   MPKI: 28.9221
L1I LOAD      TOTAL       ACCESS:   32000393  HIT:   26215964  MISS:    5784429  HIT %:    81.9239  MISS %:    18.0761   MPKI: 28.9221
L1I LOAD      NON_SPEC    ACCESS:   32000393  HIT:   26215964  MISS:    5784429  HIT %:    81.9239  MISS %:    18.0761   MPKI: 28.9221
L1I PREFETCH  REQUESTED:          0  ISSUED:          0  USEFUL:          0  USELESS:          0
L1I USEFUL LOAD PREFETCHES:          0 PREFETCH ISSUED TO LOWER LEVEL:          0  ACCURACY: -nan
L1I TIMELY PREFETCHES:          0 LATE PREFETCHES: 0 DROPPED PREFETCHES: 0
L1I COMMIT LATE PREFETCHES: 0 NORMAL LATE: 0 MISSED OPPORTUNITY: 0 UNCOVERED: 5784429
L1I PREFETCHES SAME FILL-ORIGIN LEVEL: 0 DIFFERENT FILL-ORIGIN LEVEL: 0
L1I AVERAGE MISS LATENCY: 14.0402 cycles
L1I AVERAGE MISS LATENCY LOAD: 14.0402 cycles
L1I AVERAGE MISS LATENCY PREFETCH: -nan cycles
L1I AVERAGE MSHR OCCUPANCY: 0.218118
L1I MSHR FULL: 0
L1I RQ	ACCESS:   49696770	FORWARD:          0	MERGED:   14843485	TO_CACHE:   34853285

BTB SPEC fills:          0  NON-SPEC fills:          0
BTB Test counter :          0
BTB Leapfrog:          0
BTB MSHR merge:          0
BTB TOTAL     ACCESS:    1169485  HIT:    1096958  MISS:      72527  HIT %:    93.7984  MISS %:    6.20162   MPKI: 0.362635
BTB BRANCH_DIRECT_JUMP	ACCESS:     217104  HIT:     217073  MISS:         31
BTB BRANCH_INDIRECT	ACCESS:      36158  HIT:      36156  MISS:          2
BTB BRANCH_CONDITIONAL	ACCESS:     482257  HIT:     482171  MISS:         86
BTB BRANCH_DIRECT_CALL	ACCESS:     216983  HIT:     216939  MISS:         44
BTB BRANCH_INDIRECT_CALL	ACCESS:          0  HIT:          0  MISS:          0
BTB BRANCH_RETURN	ACCESS:     216983  HIT:     144619  MISS:      72364
BTB BRANCH_OTHER ACCESS:          0  HIT:          0  MISS:          0

L2C SPEC fills:          0  NON-SPEC fills:      44229
L2C Test counter :          0
L2C Leapfrog:          0
L2C MSHR merge:         53
L2C TOTAL     ACCESS:   36728243  HIT:   34766834  MISS:    1961409  HIT %:    94.6597  MISS %:    5.34033   MPKI: 9.80705
L2C LOAD      TOTAL       ACCESS:   20205402  HIT:   19277810  MISS:     927592  HIT %:    95.4092  MISS %:    4.59081   MPKI: 4.63796
L2C LOAD      NON_SPEC    ACCESS:    6403354  HIT:    6358746  MISS:      44608  HIT %:    99.3034  MISS %:   0.696635   MPKI: 0.22304
L2C LOAD      SPEC        ACCESS:   13802048  HIT:   12919064  MISS:     882984  HIT %:    93.6025  MISS %:    6.39749   MPKI: 4.41492
L2C RFO       NON_SPEC    ACCESS:    1202389  HIT:    1085302  MISS:     117087  HIT %:    90.2621  MISS %:    9.73786   MPKI: 0.585435
L2C PREFETCH  NON_SPEC    ACCESS:     123612  HIT:     113803  MISS:       9809  HIT %:    92.0647  MISS %:    7.93531   MPKI: 0.049045
L2C WRITEBACK NON_SPEC    ACCESS:    1215059  HIT:    1214980  MISS:         79  HIT %:    99.9935  MISS %: 0.00650174   MPKI: 0.000395
L2C CLEAN_EVICTION NON_SPEC    ACCESS:   10820758  HIT:   10086758  MISS:     734000  HIT %:    93.2167  MISS %:    6.78326   MPKI: 3.67
L2C COMMIT LOAD NON_SPEC    ACCESS:    2804417  HIT:    2643517  MISS:     160900  HIT %:    94.2626  MISS %:    5.73738   MPKI: 0.8045
L2C LOAD TRANSLATION NON_SPEC    ACCESS:      40741  HIT:      29331  MISS:      11410  HIT %:    71.9938  MISS %:    28.0062   MPKI: 0.05705
L2C TRANSLATION FROM L1D PREFETCHER NON_SPEC    ACCESS:     315865  HIT:     315333  MISS:        532  HIT %:    99.8316  MISS %:   0.168426   MPKI: 0.00266
L2C PREFETCH  REQUESTED:          0  ISSUED:          0  USEFUL:       5772  USELESS:       4557
L2C USEFUL LOAD PREFETCHES:       5772 PREFETCH ISSUED TO LOWER LEVEL:       9862  ACCURACY: 58.5277
L2C TIMELY PREFETCHES:       5772 LATE PREFETCHES: 53 DROPPED PREFETCHES: 0
L2C COMMIT LATE PREFETCHES: 0 NORMAL LATE: 53 MISSED OPPORTUNITY: 0 UNCOVERED: 927539
L2C PREFETCHES SAME FILL-ORIGIN LEVEL: 9271 DIFFERENT FILL-ORIGIN LEVEL: 0
L2C AVERAGE MISS LATENCY: 96.7497 cycles
L2C AVERAGE MISS LATENCY LOAD: 92.576 cycles
L2C AVERAGE MISS LATENCY PREFETCH: 175.541 cycles
L2C AVERAGE MSHR OCCUPANCY: 0.584843
L2C MSHR FULL: 0
L2C RQ	ACCESS:   24581944	FORWARD:          0	MERGED:          0	TO_CACHE:   24568814
L2C WQ	ACCESS:   12042997	FORWARD:      13147	MERGED:       7180	TO_CACHE:   12035817
L2C PQ	ACCESS:     123684	FORWARD:          0	MERGED:          0	TO_CACHE:     123667

L2C Instructions Evicting Data 371
L2C Translations Evicting Data 11809
L2C Data Evicting Data 328083
L2C Instructions Evicting Instructions 0
L2C Translations Evicting Instructions 4
L2C Data Evicting Instructions 99
L2C Instructions Evicting Translations 8
L2C Translations Evicting Translations 129
L2C Data Evicting Translations 3843
L2C Dense regions hint from L2: 0
PSCL5 SPEC fills:          0  NON-SPEC fills:          0
PSCL5 Test counter :          0
PSCL5 Leapfrog:          0
PSCL5 MSHR merge:          0
PSCL5 TOTAL     ACCESS:          0  HIT:          0  MISS:          0  HIT %:       -nan  MISS %:       -nan   MPKI: 0
PSCL5 PREFETCH  REQUESTED:          0  ISSUED:          0  USEFUL:          0  USELESS:          0
PSCL5 USEFUL LOAD PREFETCHES:          0 PREFETCH ISSUED TO LOWER LEVEL:          0  ACCURACY: -nan
PSCL5 TIMELY PREFETCHES:          0 LATE PREFETCHES: 0 DROPPED PREFETCHES: 0
PSCL5 COMMIT LATE PREFETCHES: 0 NORMAL LATE: 0 MISSED OPPORTUNITY: 0 UNCOVERED: 0
PSCL5 PREFETCHES SAME FILL-ORIGIN LEVEL: 0 DIFFERENT FILL-ORIGIN LEVEL: 0

PSCL4 SPEC fills:          0  NON-SPEC fills:          0
PSCL4 Test counter :          0
PSCL4 Leapfrog:          0
PSCL4 MSHR merge:          0
PSCL4 TOTAL     ACCESS:          0  HIT:          0  MISS:          0  HIT %:       -nan  MISS %:       -nan   MPKI: 0
PSCL4 PREFETCH  REQUESTED:          0  ISSUED:          0  USEFUL:          0  USELESS:          0
PSCL4 USEFUL LOAD PREFETCHES:          0 PREFETCH ISSUED TO LOWER LEVEL:          0  ACCURACY: -nan
PSCL4 TIMELY PREFETCHES:          0 LATE PREFETCHES: 0 DROPPED PREFETCHES: 0
PSCL4 COMMIT LATE PREFETCHES: 0 NORMAL LATE: 0 MISSED OPPORTUNITY: 0 UNCOVERED: 0
PSCL4 PREFETCHES SAME FILL-ORIGIN LEVEL: 0 DIFFERENT FILL-ORIGIN LEVEL: 0

PSCL3 SPEC fills:          0  NON-SPEC fills:          0
PSCL3 Test counter :          0
PSCL3 Leapfrog:          0
PSCL3 MSHR merge:          0
PSCL3 TOTAL     ACCESS:          0  HIT:          0  MISS:          0  HIT %:       -nan  MISS %:       -nan   MPKI: 0
PSCL3 PREFETCH  REQUESTED:          0  ISSUED:          0  USEFUL:          0  USELESS:          0
PSCL3 USEFUL LOAD PREFETCHES:          0 PREFETCH ISSUED TO LOWER LEVEL:          0  ACCURACY: -nan
PSCL3 TIMELY PREFETCHES:          0 LATE PREFETCHES: 0 DROPPED PREFETCHES: 0
PSCL3 COMMIT LATE PREFETCHES: 0 NORMAL LATE: 0 MISSED OPPORTUNITY: 0 UNCOVERED: 0
PSCL3 PREFETCHES SAME FILL-ORIGIN LEVEL: 0 DIFFERENT FILL-ORIGIN LEVEL: 0

PSCL2 SPEC fills:          0  NON-SPEC fills:          0
PSCL2 Test counter :          0
PSCL2 Leapfrog:          0
PSCL2 MSHR merge:          0
PSCL2 TOTAL     ACCESS:          0  HIT:          0  MISS:          0  HIT %:       -nan  MISS %:       -nan   MPKI: 0
PSCL2 PREFETCH  REQUESTED:          0  ISSUED:          0  USEFUL:          0  USELESS:          0
PSCL2 USEFUL LOAD PREFETCHES:          0 PREFETCH ISSUED TO LOWER LEVEL:          0  ACCURACY: -nan
PSCL2 TIMELY PREFETCHES:          0 LATE PREFETCHES: 0 DROPPED PREFETCHES: 0
PSCL2 COMMIT LATE PREFETCHES: 0 NORMAL LATE: 0 MISSED OPPORTUNITY: 0 UNCOVERED: 0
PSCL2 PREFETCHES SAME FILL-ORIGIN LEVEL: 0 DIFFERENT FILL-ORIGIN LEVEL: 0

LLC SPEC fills:          0  NON-SPEC fills:       9753
LLC Test counter :          0
LLC Leapfrog:          0
LLC MSHR merge:          0
LLC TOTAL     ACCESS:    2280942  HIT:    1362828  MISS:     918114  HIT %:    59.7485  MISS %:    40.2515   MPKI: 4.59057
LLC LOAD      TOTAL       ACCESS:     927059  HIT:     526417  MISS:     400642  HIT %:    56.7835  MISS %:    43.2165   MPKI: 2.00321
LLC LOAD      NON_SPEC    ACCESS:      44595  HIT:      34463  MISS:      10132  HIT %:      77.28  MISS %:      22.72   MPKI: 0.05066
LLC LOAD      SPEC        ACCESS:     882464  HIT:     491954  MISS:     390510  HIT %:    55.7478  MISS %:    44.2522   MPKI: 1.95255
LLC RFO       NON_SPEC    ACCESS:     117087  HIT:          0  MISS:     117087  HIT %:          0  MISS %:        100   MPKI: 0.585435
LLC PREFETCH  NON_SPEC    ACCESS:       9862  HIT:       1463  MISS:       8399  HIT %:    14.8347  MISS %:    85.1653   MPKI: 0.041995
LLC WRITEBACK NON_SPEC    ACCESS:     117112  HIT:     117087  MISS:         25  HIT %:    99.9787  MISS %:  0.0213471   MPKI: 0.000125
LLC CLEAN_EVICTION NON_SPEC    ACCESS:     937152  HIT:     607016  MISS:     330136  HIT %:    64.7724  MISS %:    35.2276   MPKI: 1.65068
LLC COMMIT LOAD NON_SPEC    ACCESS:     160728  HIT:     100073  MISS:      60655  HIT %:    62.2623  MISS %:    37.7377   MPKI: 0.303275
LLC LOAD TRANSLATION NON_SPEC    ACCESS:      11410  HIT:      10330  MISS:       1080  HIT %:    90.5346  MISS %:    9.46538   MPKI: 0.0054
LLC TRANSLATION FROM L1D PREFETCHER NON_SPEC    ACCESS:        532  HIT:        442  MISS:         90  HIT %:    83.0827  MISS %:    16.9173   MPKI: 0.00045
LLC PREFETCH  REQUESTED:          0  ISSUED:          0  USEFUL:       7210  USELESS:       1372
LLC USEFUL LOAD PREFETCHES:       7210 PREFETCH ISSUED TO LOWER LEVEL:       8399  ACCURACY: 85.8436
LLC TIMELY PREFETCHES:       7210 LATE PREFETCHES: 0 DROPPED PREFETCHES: 0
LLC COMMIT LATE PREFETCHES: 0 NORMAL LATE: 0 MISSED OPPORTUNITY: 0 UNCOVERED: 400642
LLC PREFETCHES SAME FILL-ORIGIN LEVEL: 0 DIFFERENT FILL-ORIGIN LEVEL: 0
LLC AVERAGE MISS LATENCY: 174.99 cycles
LLC AVERAGE MISS LATENCY LOAD: 164.17 cycles
LLC AVERAGE MISS LATENCY PREFETCH: 170.676 cycles
LLC AVERAGE MSHR OCCUPANCY: 2.0407
LLC MSHR FULL: 0
LLC RQ	ACCESS:    1217468	FORWARD:          0	MERGED:          0	TO_CACHE:    1216816
LLC WQ	ACCESS:    1054264	FORWARD:        652	MERGED:          0	TO_CACHE:    1054264
LLC PQ	ACCESS:       9862	FORWARD:          0	MERGED:          0	TO_CACHE:       9862

LLC Dense regions hint to LLC: 0

RAW hits: 509870
Loads Generated: 77835663
Loads sent to L1D: 77325793
Stores Generated: 16016275
Stores sent to L1D: 16016277
Major fault: 0 Minor fault: 8463
Allocated PAGES: 8463
Total Load insts: 137007736
Total Non-spec loads: 9068846
Percentage of speculative loads: 93.3808

LeapFrogging counter: 33351370
Commit hits: 43856119 miss: 27032587
Commit hit %: 61.8662 miss %: 38.1338
Commits not translated: 0
Loads retired: 14427852
Stores retired: 16016277
Cache fills: 14427852
L1D response latency: 17.9274 cycles
Load retirement latency: 210.285 cycles
OOO test counter: 0
Discarded buffer inserts: 43856119 hits: 881919 hit %: 2.01094
Filter prediction accuracy: -nan
LATENCY_FILL: 17.7642 14467352

DRAM Statistics
 CHANNEL 0
 RQ ROW_BUFFER_HIT:     330960  ROW_BUFFER_MISS:     256993
 DBUS_CONGESTED:        752
 WQ ROW_BUFFER_HIT:     138426  ROW_BUFFER_MISS:     382071  FULL:          0

 AVG_CONGESTED_CYCLE: 5
 All warmup complete: 2
Channel 0 Bank busy for read cycles: 0
Channel 0 Bank busy for write cycles: 0
Channel 0
Rank 0
0banks busy for read cycles: 263301976
0banks busy for write cycles: 273306
1banks busy for read cycles: 28725769
1banks busy for write cycles: 32692304
2banks busy for read cycles: 6234535
2banks busy for write cycles: 10270296
3banks busy for read cycles: 2778335
3banks busy for write cycles: 3506652
4banks busy for read cycles: 860591
4banks busy for write cycles: 1039171
5banks busy for read cycles: 350023
5banks busy for write cycles: 354429
6banks busy for read cycles: 60394
6banks busy for write cycles: 189395
7banks busy for read cycles: 2370
7banks busy for write cycles: 63607
8banks busy for read cycles: 0
8banks busy for write cycles: 20490

CPU 0 Branch Prediction Accuracy: 99.9869% MPKI: 0.001165 Average ROB Occupancy at Mispredict: 21.6824
Branch types
NOT_BRANCH: 198225688 99.1128%
BRANCH_DIRECT_JUMP: 217104 0.108552%
BRANCH_INDIRECT: 36158 0.018079%
BRANCH_CONDITIONAL: 1086728 0.543364%
BRANCH_DIRECT_CALL: 216983 0.108492%
BRANCH_INDIRECT_CALL: 0 0%
BRANCH_RETURN: 216983 0.108492%
BRANCH_OTHER: 0 0%

DRAM PAGES: 1048576
Allocated PAGES: 8463
