
*** ChampSim Multicore Out-of-Order Simulator ***

Warmup Instructions: 50000000
Simulation Instructions: 200000000
Number of CPUs: 1
LLC sets: 2048
LLC ways: 16
L0D sets: 16
L0D ways: 2
ROB size: 352
LQ size: 128
SQ size: 72
Secure Berti: OFF
Berti: OFF
Berti Fill: OFF
On commit prefetching: OFF
Hit-based filter: OFF
Time-guarding: ON
Free-slotting: ON
Leap-frogging: ON
Train prefetcher on L0D bypass: OFF
No translation penalty for prefetchers: OFF
Prefetch to L0D only: OFF
Prefetch to L1D only: OFF
Clean evictions: ON
Commit loads: ON
Commit write: ON
Fill commit loads to L2C, LLC: ON
DRAM IO FREQUENCY: 6400
ROB SIZE: 352
Off-chip DRAM Size: 4096 MB Channels: 1 Width: 64-bit Data Rate: 6400 MT/s
CPU 0 runs /home/sumon/secure_berti/GhostMinion/../../traces/spec/619.lbm_s-4268B.champsimtrace.xz
.xz
BTB has LRU replacement policy
ITLB has LRU replacement policy
DTLB has LRU replacement policy
STLB has LRU replacement policy
L1I has LRU replacement policy
L0D has LRU replacement policy
History Sets: 8
History Ways: 16
BERTI Size: 16
BERTI Stride Size: 16
L1D has LRU replacement policy
L2C has LRU replacement policy
LLC has LRU replacement policy
Heartbeat CPU 0 instructions: 10000000 cycles: 3089225 heartbeat IPC: 3.23706 cumulative IPC: 3.23706 (Simulation time: 0 hr 0 min 59 sec) 
Heartbeat CPU 0 instructions: 20000003 cycles: 6176737 heartbeat IPC: 3.23885 cumulative IPC: 3.23796 (Simulation time: 0 hr 1 min 58 sec) 
Heartbeat CPU 0 instructions: 30000000 cycles: 9257081 heartbeat IPC: 3.24639 cumulative IPC: 3.24076 (Simulation time: 0 hr 2 min 50 sec) 
Heartbeat CPU 0 instructions: 40000000 cycles: 12349201 heartbeat IPC: 3.23403 cumulative IPC: 3.23908 (Simulation time: 0 hr 3 min 28 sec) 
Heartbeat CPU 0 instructions: 50000002 cycles: 15442667 heartbeat IPC: 3.23262 cumulative IPC: 3.23778 (Simulation time: 0 hr 4 min 7 sec) 

Warmup complete CPU 0 instructions: 50000002 cycles: 15442667 (Simulation time: 0 hr 4 min 7 sec) 

Heartbeat CPU 0 instructions: 60000000 cycles: 42614313 heartbeat IPC: 0.368031 cumulative IPC: 0.368031 (Simulation time: 0 hr 5 min 32 sec) 
Heartbeat CPU 0 instructions: 70000000 cycles: 69644688 heartbeat IPC: 0.369954 cumulative IPC: 0.36899 (Simulation time: 0 hr 6 min 58 sec) 
Heartbeat CPU 0 instructions: 80000001 cycles: 95676236 heartbeat IPC: 0.384149 cumulative IPC: 0.373908 (Simulation time: 0 hr 8 min 23 sec) 
Heartbeat CPU 0 instructions: 90000003 cycles: 121984733 heartbeat IPC: 0.380105 cumulative IPC: 0.375439 (Simulation time: 0 hr 9 min 50 sec) 
Heartbeat CPU 0 instructions: 100000003 cycles: 148034509 heartbeat IPC: 0.38388 cumulative IPC: 0.377097 (Simulation time: 0 hr 11 min 17 sec) 
Heartbeat CPU 0 instructions: 110000000 cycles: 174747855 heartbeat IPC: 0.374345 cumulative IPC: 0.376636 (Simulation time: 0 hr 12 min 45 sec) 
Heartbeat CPU 0 instructions: 120000001 cycles: 201755129 heartbeat IPC: 0.370271 cumulative IPC: 0.375713 (Simulation time: 0 hr 14 min 15 sec) 
Heartbeat CPU 0 instructions: 130000001 cycles: 227872355 heartbeat IPC: 0.382889 cumulative IPC: 0.376595 (Simulation time: 0 hr 15 min 43 sec) 
Heartbeat CPU 0 instructions: 140000000 cycles: 254421512 heartbeat IPC: 0.37666 cumulative IPC: 0.376602 (Simulation time: 0 hr 17 min 11 sec) 
Heartbeat CPU 0 instructions: 150000000 cycles: 281533878 heartbeat IPC: 0.368835 cumulative IPC: 0.375811 (Simulation time: 0 hr 18 min 37 sec) 
Heartbeat CPU 0 instructions: 160000003 cycles: 308612439 heartbeat IPC: 0.369296 cumulative IPC: 0.375209 (Simulation time: 0 hr 19 min 56 sec) 
Heartbeat CPU 0 instructions: 170000003 cycles: 335884634 heartbeat IPC: 0.366674 cumulative IPC: 0.374483 (Simulation time: 0 hr 21 min 9 sec) 
Heartbeat CPU 0 instructions: 180000001 cycles: 362951242 heartbeat IPC: 0.369459 cumulative IPC: 0.374091 (Simulation time: 0 hr 22 min 21 sec) 
Heartbeat CPU 0 instructions: 190000002 cycles: 389968454 heartbeat IPC: 0.370134 cumulative IPC: 0.373806 (Simulation time: 0 hr 23 min 37 sec) 
Heartbeat CPU 0 instructions: 200000000 cycles: 416908424 heartbeat IPC: 0.371196 cumulative IPC: 0.373631 (Simulation time: 0 hr 24 min 42 sec) 
Heartbeat CPU 0 instructions: 210000001 cycles: 444591799 heartbeat IPC: 0.361228 cumulative IPC: 0.372831 (Simulation time: 0 hr 25 min 47 sec) 
Heartbeat CPU 0 instructions: 220000000 cycles: 472189028 heartbeat IPC: 0.362355 cumulative IPC: 0.372198 (Simulation time: 0 hr 26 min 52 sec) 
Heartbeat CPU 0 instructions: 230000000 cycles: 499317955 heartbeat IPC: 0.36861 cumulative IPC: 0.371997 (Simulation time: 0 hr 27 min 55 sec) 
Heartbeat CPU 0 instructions: 240000001 cycles: 526672746 heartbeat IPC: 0.365567 cumulative IPC: 0.371653 (Simulation time: 0 hr 28 min 59 sec) 
Heartbeat CPU 0 instructions: 250000000 cycles: 552991201 heartbeat IPC: 0.379961 cumulative IPC: 0.372059 (Simulation time: 0 hr 30 min 0 sec) 
Finished CPU 0 instructions: 200000002 cycles: 537548539 cumulative IPC: 0.372059 (Simulation time: 0 hr 30 min 0 sec) 
 Instruction ID: 250000041

ChampSim completed all CPUs

Region of Interest Statistics

CPU 0 cumulative IPC: 0.372059 instructions: 200000002 cycles: 537548539
ITLB SPEC fills:          0  NON-SPEC fills:          0
ITLB Test counter :          0
ITLB Leapfrog:          0
ITLB MSHR merge:          0
ITLB TOTAL     ACCESS:   26822732  HIT:   26822732  MISS:          0  HIT %:        100  MISS %:          0   MPKI: 0
ITLB LOAD TRANSLATION NON_SPEC    ACCESS:   26822732  HIT:   26822732  MISS:          0  HIT %:        100  MISS %:          0   MPKI: 0
ITLB PREFETCH  REQUESTED:          0  ISSUED:          0  USEFUL:          0  USELESS:          0
ITLB USEFUL LOAD PREFETCHES:          0 PREFETCH ISSUED TO LOWER LEVEL:          0  ACCURACY: -nan
ITLB TIMELY PREFETCHES:          0 LATE PREFETCHES: 0 DROPPED PREFETCHES: 0
ITLB COMMIT LATE PREFETCHES: 0 NORMAL LATE: 0 MISSED OPPORTUNITY: 0 UNCOVERED: 0
ITLB PREFETCHES SAME FILL-ORIGIN LEVEL: 0 DIFFERENT FILL-ORIGIN LEVEL: 0
ITLB AVERAGE MISS LATENCY: -nan cycles
ITLB AVERAGE MISS LATENCY LOAD: -nan cycles
ITLB AVERAGE MISS LATENCY PREFETCH: -nan cycles
ITLB AVERAGE MSHR OCCUPANCY: 0
ITLB MSHR FULL: 0
ITLB RQ	ACCESS:   34604303	FORWARD:          0	MERGED:    7781571	TO_CACHE:   26822732

DTLB SPEC fills:          0  NON-SPEC fills:          0
DTLB Test counter :          0
DTLB Leapfrog:          0
DTLB MSHR merge:          0
DTLB TOTAL     ACCESS:   45712889  HIT:   45436362  MISS:     276527  HIT %:    99.3951  MISS %:   0.604921   MPKI: 1.38263
DTLB LOAD TRANSLATION NON_SPEC    ACCESS:   45712889  HIT:   45436362  MISS:     276527  HIT %:    99.3951  MISS %:   0.604921   MPKI: 1.38263
DTLB PREFETCH  REQUESTED:          0  ISSUED:          0  USEFUL:          0  USELESS:          0
DTLB USEFUL LOAD PREFETCHES:          0 PREFETCH ISSUED TO LOWER LEVEL:          0  ACCURACY: -nan
DTLB TIMELY PREFETCHES:          0 LATE PREFETCHES: 0 DROPPED PREFETCHES: 0
DTLB COMMIT LATE PREFETCHES: 0 NORMAL LATE: 0 MISSED OPPORTUNITY: 0 UNCOVERED: 0
DTLB PREFETCHES SAME FILL-ORIGIN LEVEL: 0 DIFFERENT FILL-ORIGIN LEVEL: 0
DTLB AVERAGE MISS LATENCY: 137.799 cycles
DTLB AVERAGE MISS LATENCY LOAD: -nan cycles
DTLB AVERAGE MISS LATENCY PREFETCH: -nan cycles
DTLB AVERAGE MSHR OCCUPANCY: 0.105392
DTLB MSHR FULL: 0
DTLB RQ	ACCESS:   66405998	FORWARD:          0	MERGED:   20503786	TO_CACHE:   45902212

STLB SPEC fills:          0  NON-SPEC fills:          0
STLB Test counter :          0
STLB Leapfrog:          0
STLB MSHR merge:          0
STLB TOTAL     ACCESS:    1444499  HIT:    1294475  MISS:     150024  HIT %:    89.6141  MISS %:    10.3859   MPKI: 0.75012
STLB LOAD TRANSLATION NON_SPEC    ACCESS:     276527  HIT:     126503  MISS:     150024  HIT %:    45.7471  MISS %:    54.2529   MPKI: 0.75012
STLB TRANSLATION FROM L1D PREFETCHER NON_SPEC    ACCESS:    1167972  HIT:    1167972  MISS:          0  HIT %:        100  MISS %:          0   MPKI: 0
STLB PREFETCH  REQUESTED:          0  ISSUED:          0  USEFUL:          0  USELESS:          0
STLB USEFUL LOAD PREFETCHES:          0 PREFETCH ISSUED TO LOWER LEVEL:          0  ACCURACY: -nan
STLB TIMELY PREFETCHES:          0 LATE PREFETCHES: 11923 DROPPED PREFETCHES: 425291
STLB COMMIT LATE PREFETCHES: 0 NORMAL LATE: 11923 MISSED OPPORTUNITY: 0 UNCOVERED: 18446744073709539693
STLB PREFETCHES SAME FILL-ORIGIN LEVEL: 0 DIFFERENT FILL-ORIGIN LEVEL: 0
STLB AVERAGE MISS LATENCY: 236.92 cycles
STLB AVERAGE MISS LATENCY LOAD: -nan cycles
STLB AVERAGE MISS LATENCY PREFETCH: -nan cycles
STLB AVERAGE MSHR OCCUPANCY: 0.324885
STLB MSHR FULL: 0
STLB RQ	ACCESS:   11108476	FORWARD:          0	MERGED:    9090843	TO_CACHE:    2017633

STLB Hit, L1D data hit: 0
STLB Hit, L2C data hit: 0
STLB Hit, LLC data hit: 0
STLB Hit, LLC data miss: 0
STLB STLB hints to L2: 0
L0D SPEC fills:   17912295  NON-SPEC fills:          0
L0D TimeGuard Request with older TS:     183779 Restricted eviction:      24647 read:     995609
L0D Test counter :          0
L0D Leapfrog:          0
L0D MSHR merge:    3445328
L0D TOTAL     ACCESS:   25992769  HIT:    6282272  MISS:   19710497  HIT %:    24.1693  MISS %:    75.8307   MPKI: 98.5525
L0D LOAD      TOTAL       ACCESS:   25992769  HIT:    6282272  MISS:   19710497  HIT %:    24.1693  MISS %:    75.8307   MPKI: 98.5525
L0D LOAD      NON_SPEC    ACCESS:    2723167  HIT:     949612  MISS:    1773555  HIT %:    34.8716  MISS %:    65.1284   MPKI: 8.86777
L0D LOAD      SPEC        ACCESS:   23269602  HIT:    5332660  MISS:   17936942  HIT %:    22.9169  MISS %:    77.0831   MPKI: 89.6847
L0D PREFETCH  REQUESTED:          0  ISSUED:          0  USEFUL:          0  USELESS:          0
L0D USEFUL LOAD PREFETCHES:          0 PREFETCH ISSUED TO LOWER LEVEL:          0  ACCURACY: -nan
L0D TIMELY PREFETCHES:          0 LATE PREFETCHES: 0 DROPPED PREFETCHES: 0
L0D COMMIT LATE PREFETCHES: 0 NORMAL LATE: 0 MISSED OPPORTUNITY: 0 UNCOVERED: 19710497
L0D PREFETCHES SAME FILL-ORIGIN LEVEL: 0 DIFFERENT FILL-ORIGIN LEVEL: 0
L0D AVERAGE MISS LATENCY: 64.0123 cycles
L0D AVERAGE MISS LATENCY LOAD: 64.0123 cycles
L0D AVERAGE MISS LATENCY PREFETCH: -nan cycles
L0D AVERAGE MSHR OCCUPANCY: 2.38177
L0D MSHR FULL: 0.188168
L0D RQ	ACCESS:   49769445	FORWARD:          0	MERGED:   20331351	TO_CACHE:   29438094
L0D WQ	ACCESS:   36967904	FORWARD:          0	MERGED:          0	TO_CACHE:   36967904

L1D SPEC fills:          0  NON-SPEC fills:     115590
L1D Test counter :          0
L1D Leapfrog:          0
L1D MSHR merge:      41533
L1D TOTAL     ACCESS:   86031182  HIT:   68319708  MISS:   17711474  HIT %:    79.4127  MISS %:    20.5873   MPKI: 88.5574
L1D LOAD      TOTAL       ACCESS:   19689243  HIT:   17793364  MISS:    1895879  HIT %:     90.371  MISS %:    9.62901   MPKI: 9.47939
L1D LOAD      NON_SPEC    ACCESS:    1765474  HIT:    1649884  MISS:     115590  HIT %:    93.4527  MISS %:    6.54725   MPKI: 0.57795
L1D LOAD      SPEC        ACCESS:   17923769  HIT:   16143480  MISS:    1780289  HIT %:    90.0674  MISS %:    9.93256   MPKI: 8.90144
L1D RFO       NON_SPEC    ACCESS:   35459018  HIT:   22137444  MISS:   13321574  HIT %:    62.4311  MISS %:    37.5689   MPKI: 66.6079
L1D PREFETCH  NON_SPEC    ACCESS:    2262329  HIT:    1722957  MISS:     539372  HIT %:    76.1586  MISS %:    23.8414   MPKI: 2.69686
L1D COMMIT LOAD NON_SPEC    ACCESS:   11369439  HIT:   10996566  MISS:     372873  HIT %:    96.7204  MISS %:    3.27961   MPKI: 1.86436
L1D COMMIT WRITE NON_SPEC    ACCESS:   17251153  HIT:   15669377  MISS:    1581776  HIT %:    90.8309  MISS %:     9.1691   MPKI: 7.90888
L1D PREFETCH  REQUESTED:   24495759  ISSUED:   12086713  USEFUL:     532310  USELESS:       7070
L1D USEFUL LOAD PREFETCHES:     532310 PREFETCH ISSUED TO LOWER LEVEL:    6974763  ACCURACY: 7.63194
L1D TIMELY PREFETCHES:     532310 LATE PREFETCHES: 20445 DROPPED PREFETCHES: 1862684
L1D COMMIT LATE PREFETCHES: 0 NORMAL LATE: 20445 MISSED OPPORTUNITY: 0 UNCOVERED: 1875434
L1D PREFETCHES SAME FILL-ORIGIN LEVEL: 560076 DIFFERENT FILL-ORIGIN LEVEL: 6414687
L1D AVERAGE MISS LATENCY: 304.476 cycles
L1D AVERAGE MISS LATENCY LOAD: 243.843 cycles
L1D AVERAGE MISS LATENCY PREFETCH: 166.455 cycles
L1D AVERAGE MSHR OCCUPANCY: 15.4623
L1D MSHR FULL: 0.922553
L1D RQ	ACCESS:   48593452	FORWARD:          0	MERGED:   16927483	TO_CACHE:   31087963
L1D WQ	ACCESS:   54403982	FORWARD:     578006	MERGED:    1450894	TO_CACHE:   52953088
L1D PQ	ACCESS:   12086713	FORWARD:          0	MERGED:    1254764	TO_CACHE:   10831949

L1D UNIQUE REGIONS ACCESSED: 0
L1D REGIONS CONFLICTS: 0
L1D Cross Page Prefetch Requests: 3326584
L1D Same Page Prefetch Requests: 12476828
L1D ROI Sum of L1D PQ occupancy: 2711213096
L1D PREFETCHES PUSHED FROM L2C: 0
L1I SPEC fills:          0  NON-SPEC fills:          0
L1I Test counter :          0
L1I Leapfrog:          0
L1I MSHR merge:          0
L1I TOTAL     ACCESS:   34604301  HIT:   34604301  MISS:          0  HIT %:        100  MISS %:          0   MPKI: 0
L1I LOAD      TOTAL       ACCESS:   34604301  HIT:   34604301  MISS:          0  HIT %:        100  MISS %:          0   MPKI: 0
L1I LOAD      NON_SPEC    ACCESS:   34604301  HIT:   34604301  MISS:          0  HIT %:        100  MISS %:          0   MPKI: 0
L1I PREFETCH  REQUESTED:          0  ISSUED:          0  USEFUL:          0  USELESS:          0
L1I USEFUL LOAD PREFETCHES:          0 PREFETCH ISSUED TO LOWER LEVEL:          0  ACCURACY: -nan
L1I TIMELY PREFETCHES:          0 LATE PREFETCHES: 0 DROPPED PREFETCHES: 0
L1I COMMIT LATE PREFETCHES: 0 NORMAL LATE: 0 MISSED OPPORTUNITY: 0 UNCOVERED: 0
L1I PREFETCHES SAME FILL-ORIGIN LEVEL: 0 DIFFERENT FILL-ORIGIN LEVEL: 0
L1I AVERAGE MISS LATENCY: -nan cycles
L1I AVERAGE MISS LATENCY LOAD: -nan cycles
L1I AVERAGE MISS LATENCY PREFETCH: -nan cycles
L1I AVERAGE MSHR OCCUPANCY: 0
L1I MSHR FULL: 0
L1I RQ	ACCESS:   49994255	FORWARD:          0	MERGED:   15389952	TO_CACHE:   34604303

BTB SPEC fills:          0  NON-SPEC fills:          0
BTB Test counter :          0
BTB Leapfrog:          0
BTB MSHR merge:          0
BTB TOTAL     ACCESS:    3614432  HIT:    3614426  MISS:          6  HIT %:    99.9998  MISS %: 0.000166001   MPKI: 3e-05
BTB BRANCH_DIRECT_JUMP	ACCESS:     592790  HIT:     592789  MISS:          1
BTB BRANCH_INDIRECT	ACCESS:          0  HIT:          0  MISS:          0
BTB BRANCH_CONDITIONAL	ACCESS:    3021642  HIT:    3021637  MISS:          5
BTB BRANCH_DIRECT_CALL	ACCESS:          0  HIT:          0  MISS:          0
BTB BRANCH_INDIRECT_CALL	ACCESS:          0  HIT:          0  MISS:          0
BTB BRANCH_RETURN	ACCESS:          0  HIT:          0  MISS:          0
BTB BRANCH_OTHER ACCESS:          0  HIT:          0  MISS:          0

L2C SPEC fills:          0  NON-SPEC fills:      13511
L2C Test counter :          0
L2C Leapfrog:          0
L2C MSHR merge:      56153
L2C TOTAL     ACCESS:   40774365  HIT:   30636194  MISS:   10138171  HIT %:    75.1359  MISS %:    24.8641   MPKI: 50.6909
L2C LOAD      TOTAL       ACCESS:    1875594  HIT:    1431444  MISS:     444150  HIT %:    76.3195  MISS %:    23.6805   MPKI: 2.22075
L2C LOAD      NON_SPEC    ACCESS:     115480  HIT:     101969  MISS:      13511  HIT %:    88.3001  MISS %:    11.6999   MPKI: 0.067555
L2C LOAD      SPEC        ACCESS:    1760114  HIT:    1329475  MISS:     430639  HIT %:    75.5335  MISS %:    24.4665   MPKI: 2.15319
L2C RFO       NON_SPEC    ACCESS:   13321532  HIT:    6035359  MISS:    7286173  HIT %:    45.3053  MISS %:    54.6947   MPKI: 36.4309
L2C PREFETCH  NON_SPEC    ACCESS:    6543353  HIT:    4567548  MISS:    1975805  HIT %:    69.8044  MISS %:    30.1956   MPKI: 9.87902
L2C WRITEBACK NON_SPEC    ACCESS:   13321581  HIT:   13321068  MISS:        513  HIT %:    99.9961  MISS %: 0.00385089   MPKI: 0.002565
L2C CLEAN_EVICTION NON_SPEC    ACCESS:    2404335  HIT:    2056140  MISS:     348195  HIT %:     85.518  MISS %:     14.482   MPKI: 1.74097
L2C COMMIT LOAD NON_SPEC    ACCESS:     372707  HIT:     308400  MISS:      64307  HIT %:     82.746  MISS %:     17.254   MPKI: 0.321535
L2C LOAD TRANSLATION NON_SPEC    ACCESS:     749974  HIT:     735807  MISS:      14167  HIT %:     98.111  MISS %:      1.889   MPKI: 0.070835
L2C TRANSLATION FROM L1D PREFETCHER NON_SPEC    ACCESS:    2185289  HIT:    2180428  MISS:       4861  HIT %:    99.7776  MISS %:   0.222442   MPKI: 0.024305
L2C PREFETCH  REQUESTED:          0  ISSUED:          0  USEFUL:    1418357  USELESS:     563247
L2C USEFUL LOAD PREFETCHES:    1418357 PREFETCH ISSUED TO LOWER LEVEL:    2032404  ACCURACY: 69.7872
L2C TIMELY PREFETCHES:    1418357 LATE PREFETCHES: 56598 DROPPED PREFETCHES: 0
L2C COMMIT LATE PREFETCHES: 0 NORMAL LATE: 56598 MISSED OPPORTUNITY: 0 UNCOVERED: 387552
L2C PREFETCHES SAME FILL-ORIGIN LEVEL: 1859941 DIFFERENT FILL-ORIGIN LEVEL: 0
L2C AVERAGE MISS LATENCY: 603.341 cycles
L2C AVERAGE MISS LATENCY LOAD: 578.39 cycles
L2C AVERAGE MISS LATENCY PREFETCH: 615.78 cycles
L2C AVERAGE MSHR OCCUPANCY: 12.7399
L2C MSHR FULL: 0.0095696
L2C RQ	ACCESS:   18505152	FORWARD:          0	MERGED:          0	TO_CACHE:   18505104
L2C WQ	ACCESS:   15726126	FORWARD:         48	MERGED:        208	TO_CACHE:   15725918
L2C PQ	ACCESS:    6929770	FORWARD:          0	MERGED:       5213	TO_CACHE:    6924557

L2C Instructions Evicting Data 0
L2C Translations Evicting Data 18970
L2C Data Evicting Data 9321595
L2C Instructions Evicting Instructions 0
L2C Translations Evicting Instructions 0
L2C Data Evicting Instructions 0
L2C Instructions Evicting Translations 0
L2C Translations Evicting Translations 58
L2C Data Evicting Translations 18201
L2C Dense regions hint from L2: 0
PSCL5 SPEC fills:          0  NON-SPEC fills:          0
PSCL5 Test counter :          0
PSCL5 Leapfrog:          0
PSCL5 MSHR merge:          0
PSCL5 TOTAL     ACCESS:          0  HIT:          0  MISS:          0  HIT %:       -nan  MISS %:       -nan   MPKI: 0
PSCL5 PREFETCH  REQUESTED:          0  ISSUED:          0  USEFUL:          0  USELESS:          0
PSCL5 USEFUL LOAD PREFETCHES:          0 PREFETCH ISSUED TO LOWER LEVEL:          0  ACCURACY: -nan
PSCL5 TIMELY PREFETCHES:          0 LATE PREFETCHES: 0 DROPPED PREFETCHES: 0
PSCL5 COMMIT LATE PREFETCHES: 0 NORMAL LATE: 0 MISSED OPPORTUNITY: 0 UNCOVERED: 0
PSCL5 PREFETCHES SAME FILL-ORIGIN LEVEL: 0 DIFFERENT FILL-ORIGIN LEVEL: 0

PSCL4 SPEC fills:          0  NON-SPEC fills:          0
PSCL4 Test counter :          0
PSCL4 Leapfrog:          0
PSCL4 MSHR merge:          0
PSCL4 TOTAL     ACCESS:          0  HIT:          0  MISS:          0  HIT %:       -nan  MISS %:       -nan   MPKI: 0
PSCL4 PREFETCH  REQUESTED:          0  ISSUED:          0  USEFUL:          0  USELESS:          0
PSCL4 USEFUL LOAD PREFETCHES:          0 PREFETCH ISSUED TO LOWER LEVEL:          0  ACCURACY: -nan
PSCL4 TIMELY PREFETCHES:          0 LATE PREFETCHES: 0 DROPPED PREFETCHES: 0
PSCL4 COMMIT LATE PREFETCHES: 0 NORMAL LATE: 0 MISSED OPPORTUNITY: 0 UNCOVERED: 0
PSCL4 PREFETCHES SAME FILL-ORIGIN LEVEL: 0 DIFFERENT FILL-ORIGIN LEVEL: 0

PSCL3 SPEC fills:          0  NON-SPEC fills:          0
PSCL3 Test counter :          0
PSCL3 Leapfrog:          0
PSCL3 MSHR merge:          0
PSCL3 TOTAL     ACCESS:          0  HIT:          0  MISS:          0  HIT %:       -nan  MISS %:       -nan   MPKI: 0
PSCL3 PREFETCH  REQUESTED:          0  ISSUED:          0  USEFUL:          0  USELESS:          0
PSCL3 USEFUL LOAD PREFETCHES:          0 PREFETCH ISSUED TO LOWER LEVEL:          0  ACCURACY: -nan
PSCL3 TIMELY PREFETCHES:          0 LATE PREFETCHES: 0 DROPPED PREFETCHES: 0
PSCL3 COMMIT LATE PREFETCHES: 0 NORMAL LATE: 0 MISSED OPPORTUNITY: 0 UNCOVERED: 0
PSCL3 PREFETCHES SAME FILL-ORIGIN LEVEL: 0 DIFFERENT FILL-ORIGIN LEVEL: 0

PSCL2 SPEC fills:          0  NON-SPEC fills:          0
PSCL2 Test counter :          0
PSCL2 Leapfrog:          0
PSCL2 MSHR merge:          0
PSCL2 TOTAL     ACCESS:          0  HIT:          0  MISS:          0  HIT %:       -nan  MISS %:       -nan   MPKI: 0
PSCL2 PREFETCH  REQUESTED:          0  ISSUED:          0  USEFUL:          0  USELESS:          0
PSCL2 USEFUL LOAD PREFETCHES:          0 PREFETCH ISSUED TO LOWER LEVEL:          0  ACCURACY: -nan
PSCL2 TIMELY PREFETCHES:          0 LATE PREFETCHES: 0 DROPPED PREFETCHES: 0
PSCL2 COMMIT LATE PREFETCHES: 0 NORMAL LATE: 0 MISSED OPPORTUNITY: 0 UNCOVERED: 0
PSCL2 PREFETCHES SAME FILL-ORIGIN LEVEL: 0 DIFFERENT FILL-ORIGIN LEVEL: 0

LLC SPEC fills:          0  NON-SPEC fills:      12374
LLC Test counter :          0
LLC Leapfrog:          0
LLC MSHR merge:          0
LLC TOTAL     ACCESS:   19462435  HIT:    9497271  MISS:    9965164  HIT %:     48.798  MISS %:     51.202   MPKI: 49.8258
LLC LOAD      TOTAL       ACCESS:     387997  HIT:        375  MISS:     387622  HIT %:  0.0966502  MISS %:    99.9033   MPKI: 1.93811
LLC LOAD      NON_SPEC    ACCESS:      12401  HIT:         27  MISS:      12374  HIT %:   0.217724  MISS %:    99.7823   MPKI: 0.06187
LLC LOAD      SPEC        ACCESS:     375596  HIT:        348  MISS:     375248  HIT %:  0.0926527  MISS %:    99.9073   MPKI: 1.87624
LLC RFO       NON_SPEC    ACCESS:    7286101  HIT:     115988  MISS:    7170113  HIT %:    1.59191  MISS %:    98.4081   MPKI: 35.8506
LLC PREFETCH  NON_SPEC    ACCESS:    2032403  HIT:       2247  MISS:    2030156  HIT %:   0.110559  MISS %:    99.8894   MPKI: 10.1508
LLC WRITEBACK NON_SPEC    ACCESS:    7288171  HIT:    7287759  MISS:        412  HIT %:    99.9943  MISS %:   0.005653   MPKI: 0.00206
LLC CLEAN_EVICTION NON_SPEC    ACCESS:    2384873  HIT:    2080892  MISS:     303981  HIT %:    87.2538  MISS %:    12.7462   MPKI: 1.5199
LLC COMMIT LOAD NON_SPEC    ACCESS:      63862  HIT:       9985  MISS:      53877  HIT %:    15.6353  MISS %:    84.3647   MPKI: 0.269385
LLC LOAD TRANSLATION NON_SPEC    ACCESS:      14167  HIT:          0  MISS:      14167  HIT %:          0  MISS %:        100   MPKI: 0.070835
LLC TRANSLATION FROM L1D PREFETCHER NON_SPEC    ACCESS:       4861  HIT:         25  MISS:       4836  HIT %:   0.514297  MISS %:    99.4857   MPKI: 0.02418
LLC PREFETCH  REQUESTED:          0  ISSUED:          0  USEFUL:      10367  USELESS:    2021278
LLC USEFUL LOAD PREFETCHES:      10367 PREFETCH ISSUED TO LOWER LEVEL:    2030156  ACCURACY: 0.51065
LLC TIMELY PREFETCHES:      10367 LATE PREFETCHES: 0 DROPPED PREFETCHES: 0
LLC COMMIT LATE PREFETCHES: 0 NORMAL LATE: 0 MISSED OPPORTUNITY: 0 UNCOVERED: 387622
LLC PREFETCHES SAME FILL-ORIGIN LEVEL: 0 DIFFERENT FILL-ORIGIN LEVEL: 0
LLC AVERAGE MISS LATENCY: 587.412 cycles
LLC AVERAGE MISS LATENCY LOAD: 575.241 cycles
LLC AVERAGE MISS LATENCY PREFETCH: 599.403 cycles
LLC AVERAGE MSHR OCCUPANCY: 11.7783
LLC MSHR FULL: 0
LLC RQ	ACCESS:    7757067	FORWARD:          0	MERGED:          0	TO_CACHE:    7756995
LLC WQ	ACCESS:    9673044	FORWARD:         72	MERGED:          0	TO_CACHE:    9673044
LLC PQ	ACCESS:    2032404	FORWARD:          0	MERGED:          0	TO_CACHE:    2032404

LLC Dense regions hint to LLC: 0

RAW hits: 2479750
Loads Generated: 52249195
Loads sent to L1D: 49769445
Stores Generated: 36967891
Stores sent to L1D: 36967904
Major fault: 0 Minor fault: 96698
Allocated PAGES: 96698
Total Load insts: 61294081
Total Non-spec loads: 3554657
Percentage of speculative loads: 94.2007

LeapFrogging counter: 26561945
Commit hits: 17728532 miss: 28882958
Commit hit %: 38.0347 miss %: 61.9653
Commits not translated: 0
Loads retired: 1895879
Stores retired: 36967904
Cache fills: 1895879
L1D response latency: 243.843 cycles
Load retirement latency: 906.309 cycles
OOO test counter: 0
Discarded buffer inserts: 17728532 hits: 426860 hit %: 2.40776
Filter prediction accuracy: -nan
LATENCY_FILL: 167.406 1893063

DRAM Statistics
 CHANNEL 0
 RQ ROW_BUFFER_HIT:    1058553  ROW_BUFFER_MISS:    8602218
 DBUS_CONGESTED:         10
 WQ ROW_BUFFER_HIT:    2261635  ROW_BUFFER_MISS:    7294900  FULL:      12451

 AVG_CONGESTED_CYCLE: 5
 All warmup complete: 2
Channel 0 Bank busy for read cycles: 0
Channel 0 Bank busy for write cycles: 0
Channel 0
Rank 0
0banks busy for read cycles: 74815770
0banks busy for write cycles: 41027
1banks busy for read cycles: 8152460
1banks busy for write cycles: 4427754
2banks busy for read cycles: 8774648
2banks busy for write cycles: 3631903
3banks busy for read cycles: 12816218
3banks busy for write cycles: 3290477
4banks busy for read cycles: 19500754
4banks busy for write cycles: 3233064
5banks busy for read cycles: 37505501
5banks busy for write cycles: 3321273
6banks busy for read cycles: 49630700
6banks busy for write cycles: 3733571
7banks busy for read cycles: 61300653
7banks busy for write cycles: 13500377
8banks busy for read cycles: 60513598
8banks busy for write cycles: 169358792

CPU 0 Branch Prediction Accuracy: 97.0917% MPKI: 0.525585 Average ROB Occupancy at Mispredict: 178.825
Branch types
NOT_BRANCH: 196385227 98.1926%
BRANCH_DIRECT_JUMP: 592790 0.296395%
BRANCH_INDIRECT: 0 0%
BRANCH_CONDITIONAL: 3021642 1.51082%
BRANCH_DIRECT_CALL: 0 0%
BRANCH_INDIRECT_CALL: 0 0%
BRANCH_RETURN: 0 0%
BRANCH_OTHER: 0 0%

DRAM PAGES: 1048576
Allocated PAGES: 96698
