
*** ChampSim Multicore Out-of-Order Simulator ***

Warmup Instructions: 50000000
Simulation Instructions: 200000000
Number of CPUs: 1
LLC sets: 2048
LLC ways: 16
L0D sets: 16
L0D ways: 2
ROB size: 352
LQ size: 128
SQ size: 72
Secure Berti: OFF
Berti: OFF
Berti Fill: OFF
On commit prefetching: OFF
Hit-based filter: OFF
Time-guarding: ON
Free-slotting: ON
Leap-frogging: ON
Train prefetcher on L0D bypass: OFF
No translation penalty for prefetchers: OFF
Prefetch to L0D only: OFF
Prefetch to L1D only: OFF
Clean evictions: ON
Commit loads: ON
Commit write: ON
Fill commit loads to L2C, LLC: ON
DRAM IO FREQUENCY: 6400
ROB SIZE: 352
Off-chip DRAM Size: 4096 MB Channels: 1 Width: 64-bit Data Rate: 6400 MT/s
CPU 0 runs /home/sumon/secure_berti/GhostMinion/../../traces/spec/619.lbm_s-2677B.champsimtrace.xz
.xz
BTB has LRU replacement policy
ITLB has LRU replacement policy
DTLB has LRU replacement policy
STLB has LRU replacement policy
L1I has LRU replacement policy
L0D has LRU replacement policy
History Sets: 8
History Ways: 16
BERTI Size: 16
BERTI Stride Size: 16
L1D has LRU replacement policy
L2C has LRU replacement policy
LLC has LRU replacement policy
Heartbeat CPU 0 instructions: 10000001 cycles: 3090153 heartbeat IPC: 3.23609 cumulative IPC: 3.23609 (Simulation time: 0 hr 0 min 37 sec) 
Heartbeat CPU 0 instructions: 20000003 cycles: 6166229 heartbeat IPC: 3.2509 cumulative IPC: 3.24347 (Simulation time: 0 hr 1 min 13 sec) 
Heartbeat CPU 0 instructions: 30000000 cycles: 9250712 heartbeat IPC: 3.24203 cumulative IPC: 3.24299 (Simulation time: 0 hr 1 min 50 sec) 
Heartbeat CPU 0 instructions: 40000000 cycles: 12335258 heartbeat IPC: 3.24197 cumulative IPC: 3.24274 (Simulation time: 0 hr 2 min 27 sec) 
Heartbeat CPU 0 instructions: 50000003 cycles: 15425928 heartbeat IPC: 3.23555 cumulative IPC: 3.2413 (Simulation time: 0 hr 3 min 3 sec) 

Warmup complete CPU 0 instructions: 50000003 cycles: 15425928 (Simulation time: 0 hr 3 min 3 sec) 

Heartbeat CPU 0 instructions: 60000001 cycles: 42177621 heartbeat IPC: 0.373808 cumulative IPC: 0.373808 (Simulation time: 0 hr 4 min 15 sec) 
Heartbeat CPU 0 instructions: 70000002 cycles: 68660238 heartbeat IPC: 0.377606 cumulative IPC: 0.375698 (Simulation time: 0 hr 5 min 25 sec) 
Heartbeat CPU 0 instructions: 80000002 cycles: 95240422 heartbeat IPC: 0.37622 cumulative IPC: 0.375872 (Simulation time: 0 hr 6 min 35 sec) 
Heartbeat CPU 0 instructions: 90000000 cycles: 122462865 heartbeat IPC: 0.367344 cumulative IPC: 0.373703 (Simulation time: 0 hr 7 min 47 sec) 
Heartbeat CPU 0 instructions: 100000002 cycles: 149635859 heartbeat IPC: 0.368013 cumulative IPC: 0.372551 (Simulation time: 0 hr 8 min 58 sec) 
Heartbeat CPU 0 instructions: 110000000 cycles: 177008752 heartbeat IPC: 0.365325 cumulative IPC: 0.371327 (Simulation time: 0 hr 10 min 10 sec) 
Heartbeat CPU 0 instructions: 120000000 cycles: 203762204 heartbeat IPC: 0.373784 cumulative IPC: 0.371676 (Simulation time: 0 hr 11 min 24 sec) 
Heartbeat CPU 0 instructions: 130000001 cycles: 230449472 heartbeat IPC: 0.374711 cumulative IPC: 0.372052 (Simulation time: 0 hr 12 min 38 sec) 
Heartbeat CPU 0 instructions: 140000001 cycles: 257214697 heartbeat IPC: 0.373619 cumulative IPC: 0.372226 (Simulation time: 0 hr 13 min 53 sec) 
Heartbeat CPU 0 instructions: 150000000 cycles: 284321094 heartbeat IPC: 0.368917 cumulative IPC: 0.371892 (Simulation time: 0 hr 15 min 7 sec) 
Heartbeat CPU 0 instructions: 160000003 cycles: 310893252 heartbeat IPC: 0.376334 cumulative IPC: 0.372292 (Simulation time: 0 hr 16 min 16 sec) 
Heartbeat CPU 0 instructions: 170000002 cycles: 337007545 heartbeat IPC: 0.382932 cumulative IPC: 0.373156 (Simulation time: 0 hr 17 min 23 sec) 
Heartbeat CPU 0 instructions: 180000000 cycles: 362610797 heartbeat IPC: 0.390575 cumulative IPC: 0.37444 (Simulation time: 0 hr 18 min 28 sec) 
Heartbeat CPU 0 instructions: 190000001 cycles: 389125560 heartbeat IPC: 0.377148 cumulative IPC: 0.374632 (Simulation time: 0 hr 19 min 32 sec) 
Heartbeat CPU 0 instructions: 200000000 cycles: 415527006 heartbeat IPC: 0.378767 cumulative IPC: 0.374905 (Simulation time: 0 hr 20 min 37 sec) 
Heartbeat CPU 0 instructions: 210000000 cycles: 441629752 heartbeat IPC: 0.383101 cumulative IPC: 0.375407 (Simulation time: 0 hr 21 min 39 sec) 
Heartbeat CPU 0 instructions: 220000000 cycles: 468800711 heartbeat IPC: 0.36804 cumulative IPC: 0.374966 (Simulation time: 0 hr 22 min 46 sec) 
Heartbeat CPU 0 instructions: 230000000 cycles: 496323519 heartbeat IPC: 0.363335 cumulative IPC: 0.3743 (Simulation time: 0 hr 23 min 52 sec) 
Heartbeat CPU 0 instructions: 240000001 cycles: 524758680 heartbeat IPC: 0.351677 cumulative IPC: 0.373037 (Simulation time: 0 hr 25 min 0 sec) 
Heartbeat CPU 0 instructions: 250000003 cycles: 552757347 heartbeat IPC: 0.35716 cumulative IPC: 0.37221 (Simulation time: 0 hr 26 min 8 sec) 
Finished CPU 0 instructions: 200000000 cycles: 537331419 cumulative IPC: 0.37221 (Simulation time: 0 hr 26 min 8 sec) 
 Instruction ID: 250000082

ChampSim completed all CPUs

Region of Interest Statistics

CPU 0 cumulative IPC: 0.37221 instructions: 200000000 cycles: 537331419
ITLB SPEC fills:          0  NON-SPEC fills:          0
ITLB Test counter :          0
ITLB Leapfrog:          0
ITLB MSHR merge:          0
ITLB TOTAL     ACCESS:   26831289  HIT:   26831289  MISS:          0  HIT %:        100  MISS %:          0   MPKI: 0
ITLB LOAD TRANSLATION NON_SPEC    ACCESS:   26831289  HIT:   26831289  MISS:          0  HIT %:        100  MISS %:          0   MPKI: 0
ITLB PREFETCH  REQUESTED:          0  ISSUED:          0  USEFUL:          0  USELESS:          0
ITLB USEFUL LOAD PREFETCHES:          0 PREFETCH ISSUED TO LOWER LEVEL:          0  ACCURACY: -nan
ITLB TIMELY PREFETCHES:          0 LATE PREFETCHES: 0 DROPPED PREFETCHES: 0
ITLB COMMIT LATE PREFETCHES: 0 NORMAL LATE: 0 MISSED OPPORTUNITY: 0 UNCOVERED: 0
ITLB PREFETCHES SAME FILL-ORIGIN LEVEL: 0 DIFFERENT FILL-ORIGIN LEVEL: 0
ITLB AVERAGE MISS LATENCY: -nan cycles
ITLB AVERAGE MISS LATENCY LOAD: -nan cycles
ITLB AVERAGE MISS LATENCY PREFETCH: -nan cycles
ITLB AVERAGE MSHR OCCUPANCY: 0
ITLB MSHR FULL: 0
ITLB RQ	ACCESS:   34621770	FORWARD:          0	MERGED:    7790482	TO_CACHE:   26831288

DTLB SPEC fills:          0  NON-SPEC fills:          0
DTLB Test counter :          0
DTLB Leapfrog:          0
DTLB MSHR merge:          0
DTLB TOTAL     ACCESS:   45606783  HIT:   45330736  MISS:     276047  HIT %:    99.3947  MISS %:   0.605276   MPKI: 1.38024
DTLB LOAD TRANSLATION NON_SPEC    ACCESS:   45606783  HIT:   45330736  MISS:     276047  HIT %:    99.3947  MISS %:   0.605276   MPKI: 1.38024
DTLB PREFETCH  REQUESTED:          0  ISSUED:          0  USEFUL:          0  USELESS:          0
DTLB USEFUL LOAD PREFETCHES:          0 PREFETCH ISSUED TO LOWER LEVEL:          0  ACCURACY: -nan
DTLB TIMELY PREFETCHES:          0 LATE PREFETCHES: 0 DROPPED PREFETCHES: 0
DTLB COMMIT LATE PREFETCHES: 0 NORMAL LATE: 0 MISSED OPPORTUNITY: 0 UNCOVERED: 0
DTLB PREFETCHES SAME FILL-ORIGIN LEVEL: 0 DIFFERENT FILL-ORIGIN LEVEL: 0
DTLB AVERAGE MISS LATENCY: 137.016 cycles
DTLB AVERAGE MISS LATENCY LOAD: -nan cycles
DTLB AVERAGE MISS LATENCY PREFETCH: -nan cycles
DTLB AVERAGE MSHR OCCUPANCY: 0.105855
DTLB MSHR FULL: 0
DTLB RQ	ACCESS:   67163077	FORWARD:          0	MERGED:   21367630	TO_CACHE:   45795447

STLB SPEC fills:          0  NON-SPEC fills:          0
STLB Test counter :          0
STLB Leapfrog:          0
STLB MSHR merge:          0
STLB TOTAL     ACCESS:    1442487  HIT:    1292727  MISS:     149760  HIT %:    89.6179  MISS %:    10.3821   MPKI: 0.7488
STLB LOAD TRANSLATION NON_SPEC    ACCESS:     276047  HIT:     126287  MISS:     149760  HIT %:    45.7484  MISS %:    54.2516   MPKI: 0.7488
STLB TRANSLATION FROM L1D PREFETCHER NON_SPEC    ACCESS:    1166440  HIT:    1166440  MISS:          0  HIT %:        100  MISS %:          0   MPKI: 0
STLB PREFETCH  REQUESTED:          0  ISSUED:          0  USEFUL:          0  USELESS:          0
STLB USEFUL LOAD PREFETCHES:          0 PREFETCH ISSUED TO LOWER LEVEL:          0  ACCURACY: -nan
STLB TIMELY PREFETCHES:          0 LATE PREFETCHES: 11705 DROPPED PREFETCHES: 375589
STLB COMMIT LATE PREFETCHES: 0 NORMAL LATE: 11705 MISSED OPPORTUNITY: 0 UNCOVERED: 18446744073709539911
STLB PREFETCHES SAME FILL-ORIGIN LEVEL: 0 DIFFERENT FILL-ORIGIN LEVEL: 0
STLB AVERAGE MISS LATENCY: 235.443 cycles
STLB AVERAGE MISS LATENCY LOAD: -nan cycles
STLB AVERAGE MISS LATENCY PREFETCH: -nan cycles
STLB AVERAGE MSHR OCCUPANCY: 0.327724
STLB MSHR FULL: 0
STLB RQ	ACCESS:   11105607	FORWARD:          0	MERGED:    9142087	TO_CACHE:    1963520

STLB Hit, L1D data hit: 0
STLB Hit, L2C data hit: 0
STLB Hit, LLC data hit: 0
STLB Hit, LLC data miss: 0
STLB STLB hints to L2: 0
L0D SPEC fills:   18014796  NON-SPEC fills:          0
L0D TimeGuard Request with older TS:      85858 Restricted eviction:     124175 read:     663995
L0D Test counter :          0
L0D Leapfrog:          0
L0D MSHR merge:    3600092
L0D TOTAL     ACCESS:   26618050  HIT:    6616110  MISS:   20001940  HIT %:    24.8557  MISS %:    75.1443   MPKI: 100.01
L0D LOAD      TOTAL       ACCESS:   26618050  HIT:    6616110  MISS:   20001940  HIT %:    24.8557  MISS %:    75.1443   MPKI: 100.01
L0D LOAD      NON_SPEC    ACCESS:    2614406  HIT:     751437  MISS:    1862969  HIT %:    28.7422  MISS %:    71.2578   MPKI: 9.31485
L0D LOAD      SPEC        ACCESS:   24003644  HIT:    5864673  MISS:   18138971  HIT %:    24.4324  MISS %:    75.5676   MPKI: 90.6949
L0D PREFETCH  REQUESTED:          0  ISSUED:          0  USEFUL:          0  USELESS:          0
L0D USEFUL LOAD PREFETCHES:          0 PREFETCH ISSUED TO LOWER LEVEL:          0  ACCURACY: -nan
L0D TIMELY PREFETCHES:          0 LATE PREFETCHES: 0 DROPPED PREFETCHES: 0
L0D COMMIT LATE PREFETCHES: 0 NORMAL LATE: 0 MISSED OPPORTUNITY: 0 UNCOVERED: 20001940
L0D PREFETCHES SAME FILL-ORIGIN LEVEL: 0 DIFFERENT FILL-ORIGIN LEVEL: 0
L0D AVERAGE MISS LATENCY: 63.0513 cycles
L0D AVERAGE MISS LATENCY LOAD: 63.0513 cycles
L0D AVERAGE MISS LATENCY PREFETCH: -nan cycles
L0D AVERAGE MSHR OCCUPANCY: 2.35532
L0D MSHR FULL: 0.184169
L0D RQ	ACCESS:   49727946	FORWARD:          0	MERGED:   19509806	TO_CACHE:   30218140
L0D WQ	ACCESS:   36944937	FORWARD:          0	MERGED:          0	TO_CACHE:   36944937

L1D SPEC fills:          0  NON-SPEC fills:     115656
L1D Test counter :          0
L1D Leapfrog:          0
L1D MSHR merge:      41676
L1D TOTAL     ACCESS:   86878424  HIT:   69200422  MISS:   17678002  HIT %:     79.652  MISS %:     20.348   MPKI: 88.39
L1D LOAD      TOTAL       ACCESS:   19980676  HIT:   18088027  MISS:    1892649  HIT %:    90.5276  MISS %:     9.4724   MPKI: 9.46325
L1D LOAD      NON_SPEC    ACCESS:    1854705  HIT:    1739049  MISS:     115656  HIT %:    93.7642  MISS %:    6.23582   MPKI: 0.57828
L1D LOAD      SPEC        ACCESS:   18125971  HIT:   16348978  MISS:    1776993  HIT %:    90.1964  MISS %:    9.80357   MPKI: 8.88496
L1D RFO       NON_SPEC    ACCESS:   35287636  HIT:   21992200  MISS:   13295436  HIT %:    62.3227  MISS %:    37.6773   MPKI: 66.4772
L1D PREFETCH  NON_SPEC    ACCESS:    2257454  HIT:    1718389  MISS:     539065  HIT %:    76.1207  MISS %:    23.8793   MPKI: 2.69532
L1D COMMIT LOAD NON_SPEC    ACCESS:   11903413  HIT:   11530853  MISS:     372560  HIT %:    96.8701  MISS %:    3.12986   MPKI: 1.8628
L1D COMMIT WRITE NON_SPEC    ACCESS:   17449245  HIT:   15870953  MISS:    1578292  HIT %:     90.955  MISS %:    9.04504   MPKI: 7.89146
L1D PREFETCH  REQUESTED:   24422199  ISSUED:   12092821  USEFUL:     530468  USELESS:       8614
L1D USEFUL LOAD PREFETCHES:     530468 PREFETCH ISSUED TO LOWER LEVEL:    7020302  ACCURACY: 7.5562
L1D TIMELY PREFETCHES:     530468 LATE PREFETCHES: 20570 DROPPED PREFETCHES: 1811106
L1D COMMIT LATE PREFETCHES: 0 NORMAL LATE: 20570 MISSED OPPORTUNITY: 0 UNCOVERED: 1872079
L1D PREFETCHES SAME FILL-ORIGIN LEVEL: 560369 DIFFERENT FILL-ORIGIN LEVEL: 6459933
L1D AVERAGE MISS LATENCY: 304.616 cycles
L1D AVERAGE MISS LATENCY LOAD: 243.913 cycles
L1D AVERAGE MISS LATENCY PREFETCH: 165.465 cycles
L1D AVERAGE MSHR OCCUPANCY: 15.4473
L1D MSHR FULL: 0.920386
L1D RQ	ACCESS:   48910219	FORWARD:          0	MERGED:   16431327	TO_CACHE:   31913839
L1D WQ	ACCESS:   54574446	FORWARD:     565053	MERGED:    1595611	TO_CACHE:   52978835
L1D PQ	ACCESS:   12092821	FORWARD:          0	MERGED:    1263261	TO_CACHE:   10829560

L1D UNIQUE REGIONS ACCESSED: 0
L1D REGIONS CONFLICTS: 0
L1D Cross Page Prefetch Requests: 3270130
L1D Same Page Prefetch Requests: 12541738
L1D ROI Sum of L1D PQ occupancy: 2690774025
L1D PREFETCHES PUSHED FROM L2C: 0
L1I SPEC fills:          0  NON-SPEC fills:          0
L1I Test counter :          0
L1I Leapfrog:          0
L1I MSHR merge:          0
L1I TOTAL     ACCESS:   34621771  HIT:   34621771  MISS:          0  HIT %:        100  MISS %:          0   MPKI: 0
L1I LOAD      TOTAL       ACCESS:   34621771  HIT:   34621771  MISS:          0  HIT %:        100  MISS %:          0   MPKI: 0
L1I LOAD      NON_SPEC    ACCESS:   34621771  HIT:   34621771  MISS:          0  HIT %:        100  MISS %:          0   MPKI: 0
L1I PREFETCH  REQUESTED:          0  ISSUED:          0  USEFUL:          0  USELESS:          0
L1I USEFUL LOAD PREFETCHES:          0 PREFETCH ISSUED TO LOWER LEVEL:          0  ACCURACY: -nan
L1I TIMELY PREFETCHES:          0 LATE PREFETCHES: 0 DROPPED PREFETCHES: 0
L1I COMMIT LATE PREFETCHES: 0 NORMAL LATE: 0 MISSED OPPORTUNITY: 0 UNCOVERED: 0
L1I PREFETCHES SAME FILL-ORIGIN LEVEL: 0 DIFFERENT FILL-ORIGIN LEVEL: 0
L1I AVERAGE MISS LATENCY: -nan cycles
L1I AVERAGE MISS LATENCY LOAD: -nan cycles
L1I AVERAGE MISS LATENCY PREFETCH: -nan cycles
L1I AVERAGE MSHR OCCUPANCY: 0
L1I MSHR FULL: 0
L1I RQ	ACCESS:   49987715	FORWARD:          0	MERGED:   15365945	TO_CACHE:   34621770

BTB SPEC fills:          0  NON-SPEC fills:          0
BTB Test counter :          0
BTB Leapfrog:          0
BTB MSHR merge:          0
BTB TOTAL     ACCESS:    3609719  HIT:    3609713  MISS:          6  HIT %:    99.9998  MISS %: 0.000166218   MPKI: 3e-05
BTB BRANCH_DIRECT_JUMP	ACCESS:     590927  HIT:     590926  MISS:          1
BTB BRANCH_INDIRECT	ACCESS:          0  HIT:          0  MISS:          0
BTB BRANCH_CONDITIONAL	ACCESS:    3018792  HIT:    3018787  MISS:          5
BTB BRANCH_DIRECT_CALL	ACCESS:          0  HIT:          0  MISS:          0
BTB BRANCH_INDIRECT_CALL	ACCESS:          0  HIT:          0  MISS:          0
BTB BRANCH_RETURN	ACCESS:          0  HIT:          0  MISS:          0
BTB BRANCH_OTHER ACCESS:          0  HIT:          0  MISS:          0

L2C SPEC fills:          0  NON-SPEC fills:      13149
L2C Test counter :          0
L2C Leapfrog:          0
L2C MSHR merge:      56207
L2C TOTAL     ACCESS:   40516859  HIT:   30408317  MISS:   10108542  HIT %:     75.051  MISS %:     24.949   MPKI: 50.5427
L2C LOAD      TOTAL       ACCESS:    1872234  HIT:    1429608  MISS:     442626  HIT %:    76.3584  MISS %:    23.6416   MPKI: 2.21313
L2C LOAD      NON_SPEC    ACCESS:     115548  HIT:     102399  MISS:      13149  HIT %:    88.6203  MISS %:    11.3797   MPKI: 0.065745
L2C LOAD      SPEC        ACCESS:    1756686  HIT:    1327209  MISS:     429477  HIT %:    75.5519  MISS %:    24.4481   MPKI: 2.14738
L2C RFO       NON_SPEC    ACCESS:   13295433  HIT:    6036376  MISS:    7259057  HIT %:    45.4019  MISS %:    54.5981   MPKI: 36.2953
L2C PREFETCH  NON_SPEC    ACCESS:    6596519  HIT:    4621470  MISS:    1975049  HIT %:    70.0592  MISS %:    29.9408   MPKI: 9.87524
L2C WRITEBACK NON_SPEC    ACCESS:   13295434  HIT:   13294829  MISS:        605  HIT %:    99.9954  MISS %: 0.00455043   MPKI: 0.003025
L2C CLEAN_EVICTION NON_SPEC    ACCESS:    2400534  HIT:    2053279  MISS:     347255  HIT %:    85.5343  MISS %:    14.4657   MPKI: 1.73628
L2C COMMIT LOAD NON_SPEC    ACCESS:     372403  HIT:     308470  MISS:      63933  HIT %:    82.8323  MISS %:    17.1677   MPKI: 0.319665
L2C LOAD TRANSLATION NON_SPEC    ACCESS:     748654  HIT:     734511  MISS:      14143  HIT %:    98.1109  MISS %:    1.88912   MPKI: 0.070715
L2C TRANSLATION FROM L1D PREFETCHER NON_SPEC    ACCESS:    1935648  HIT:    1929774  MISS:       5874  HIT %:    99.6965  MISS %:   0.303464   MPKI: 0.02937
L2C PREFETCH  REQUESTED:          0  ISSUED:          0  USEFUL:    1418154  USELESS:     564355
L2C USEFUL LOAD PREFETCHES:    1418154 PREFETCH ISSUED TO LOWER LEVEL:    2031746  ACCURACY: 69.7998
L2C TIMELY PREFETCHES:    1418154 LATE PREFETCHES: 56693 DROPPED PREFETCHES: 0
L2C COMMIT LATE PREFETCHES: 0 NORMAL LATE: 56693 MISSED OPPORTUNITY: 0 UNCOVERED: 385933
L2C PREFETCHES SAME FILL-ORIGIN LEVEL: 1859357 DIFFERENT FILL-ORIGIN LEVEL: 0
L2C AVERAGE MISS LATENCY: 604.245 cycles
L2C AVERAGE MISS LATENCY LOAD: 577.662 cycles
L2C AVERAGE MISS LATENCY PREFETCH: 615.257 cycles
L2C AVERAGE MSHR OCCUPANCY: 12.777
L2C MSHR FULL: 0.0100092
L2C RQ	ACCESS:   18224389	FORWARD:          0	MERGED:          0	TO_CACHE:   18224383
L2C WQ	ACCESS:   15696095	FORWARD:          6	MERGED:        127	TO_CACHE:   15695968
L2C PQ	ACCESS:    6984668	FORWARD:          0	MERGED:       5588	TO_CACHE:    6979080

L2C Instructions Evicting Data 0
L2C Translations Evicting Data 19921
L2C Data Evicting Data 9292077
L2C Instructions Evicting Instructions 0
L2C Translations Evicting Instructions 0
L2C Data Evicting Instructions 0
L2C Instructions Evicting Translations 0
L2C Translations Evicting Translations 96
L2C Data Evicting Translations 19111
L2C Dense regions hint from L2: 0
PSCL5 SPEC fills:          0  NON-SPEC fills:          0
PSCL5 Test counter :          0
PSCL5 Leapfrog:          0
PSCL5 MSHR merge:          0
PSCL5 TOTAL     ACCESS:          0  HIT:          0  MISS:          0  HIT %:       -nan  MISS %:       -nan   MPKI: 0
PSCL5 PREFETCH  REQUESTED:          0  ISSUED:          0  USEFUL:          0  USELESS:          0
PSCL5 USEFUL LOAD PREFETCHES:          0 PREFETCH ISSUED TO LOWER LEVEL:          0  ACCURACY: -nan
PSCL5 TIMELY PREFETCHES:          0 LATE PREFETCHES: 0 DROPPED PREFETCHES: 0
PSCL5 COMMIT LATE PREFETCHES: 0 NORMAL LATE: 0 MISSED OPPORTUNITY: 0 UNCOVERED: 0
PSCL5 PREFETCHES SAME FILL-ORIGIN LEVEL: 0 DIFFERENT FILL-ORIGIN LEVEL: 0

PSCL4 SPEC fills:          0  NON-SPEC fills:          0
PSCL4 Test counter :          0
PSCL4 Leapfrog:          0
PSCL4 MSHR merge:          0
PSCL4 TOTAL     ACCESS:          0  HIT:          0  MISS:          0  HIT %:       -nan  MISS %:       -nan   MPKI: 0
PSCL4 PREFETCH  REQUESTED:          0  ISSUED:          0  USEFUL:          0  USELESS:          0
PSCL4 USEFUL LOAD PREFETCHES:          0 PREFETCH ISSUED TO LOWER LEVEL:          0  ACCURACY: -nan
PSCL4 TIMELY PREFETCHES:          0 LATE PREFETCHES: 0 DROPPED PREFETCHES: 0
PSCL4 COMMIT LATE PREFETCHES: 0 NORMAL LATE: 0 MISSED OPPORTUNITY: 0 UNCOVERED: 0
PSCL4 PREFETCHES SAME FILL-ORIGIN LEVEL: 0 DIFFERENT FILL-ORIGIN LEVEL: 0

PSCL3 SPEC fills:          0  NON-SPEC fills:          0
PSCL3 Test counter :          0
PSCL3 Leapfrog:          0
PSCL3 MSHR merge:          0
PSCL3 TOTAL     ACCESS:          0  HIT:          0  MISS:          0  HIT %:       -nan  MISS %:       -nan   MPKI: 0
PSCL3 PREFETCH  REQUESTED:          0  ISSUED:          0  USEFUL:          0  USELESS:          0
PSCL3 USEFUL LOAD PREFETCHES:          0 PREFETCH ISSUED TO LOWER LEVEL:          0  ACCURACY: -nan
PSCL3 TIMELY PREFETCHES:          0 LATE PREFETCHES: 0 DROPPED PREFETCHES: 0
PSCL3 COMMIT LATE PREFETCHES: 0 NORMAL LATE: 0 MISSED OPPORTUNITY: 0 UNCOVERED: 0
PSCL3 PREFETCHES SAME FILL-ORIGIN LEVEL: 0 DIFFERENT FILL-ORIGIN LEVEL: 0

PSCL2 SPEC fills:          0  NON-SPEC fills:          0
PSCL2 Test counter :          0
PSCL2 Leapfrog:          0
PSCL2 MSHR merge:          0
PSCL2 TOTAL     ACCESS:          0  HIT:          0  MISS:          0  HIT %:       -nan  MISS %:       -nan   MPKI: 0
PSCL2 PREFETCH  REQUESTED:          0  ISSUED:          0  USEFUL:          0  USELESS:          0
PSCL2 USEFUL LOAD PREFETCHES:          0 PREFETCH ISSUED TO LOWER LEVEL:          0  ACCURACY: -nan
PSCL2 TIMELY PREFETCHES:          0 LATE PREFETCHES: 0 DROPPED PREFETCHES: 0
PSCL2 COMMIT LATE PREFETCHES: 0 NORMAL LATE: 0 MISSED OPPORTUNITY: 0 UNCOVERED: 0
PSCL2 PREFETCHES SAME FILL-ORIGIN LEVEL: 0 DIFFERENT FILL-ORIGIN LEVEL: 0

LLC SPEC fills:          0  NON-SPEC fills:      12119
LLC Test counter :          0
LLC Leapfrog:          0
LLC MSHR merge:          0
LLC TOTAL     ACCESS:   19402637  HIT:    9454955  MISS:    9947682  HIT %:    48.7303  MISS %:    51.2697   MPKI: 49.7384
LLC LOAD      TOTAL       ACCESS:     386419  HIT:        360  MISS:     386059  HIT %:  0.0931631  MISS %:    99.9068   MPKI: 1.9303
LLC LOAD      NON_SPEC    ACCESS:      12149  HIT:         30  MISS:      12119  HIT %:   0.246934  MISS %:    99.7531   MPKI: 0.060595
LLC LOAD      SPEC        ACCESS:     374270  HIT:        330  MISS:     373940  HIT %:  0.0881716  MISS %:    99.9118   MPKI: 1.8697
LLC RFO       NON_SPEC    ACCESS:    7259008  HIT:     101791  MISS:    7157217  HIT %:    1.40227  MISS %:    98.5977   MPKI: 35.7861
LLC PREFETCH  NON_SPEC    ACCESS:    2031743  HIT:       3432  MISS:    2028311  HIT %:   0.168919  MISS %:    99.8311   MPKI: 10.1416
LLC WRITEBACK NON_SPEC    ACCESS:    7258934  HIT:    7258538  MISS:        396  HIT %:    99.9945  MISS %: 0.00545535   MPKI: 0.00198
LLC CLEAN_EVICTION NON_SPEC    ACCESS:    2383069  HIT:    2080044  MISS:     303025  HIT %:    87.2843  MISS %:    12.7157   MPKI: 1.51513
LLC COMMIT LOAD NON_SPEC    ACCESS:      63447  HIT:       9937  MISS:      53510  HIT %:    15.6619  MISS %:    84.3381   MPKI: 0.26755
LLC LOAD TRANSLATION NON_SPEC    ACCESS:      14143  HIT:          0  MISS:      14143  HIT %:          0  MISS %:        100   MPKI: 0.070715
LLC TRANSLATION FROM L1D PREFETCHER NON_SPEC    ACCESS:       5874  HIT:        853  MISS:       5021  HIT %:    14.5216  MISS %:    85.4784   MPKI: 0.025105
LLC PREFETCH  REQUESTED:          0  ISSUED:          0  USEFUL:      10522  USELESS:    2026122
LLC USEFUL LOAD PREFETCHES:      10522 PREFETCH ISSUED TO LOWER LEVEL:    2028314  ACCURACY: 0.518756
LLC TIMELY PREFETCHES:      10522 LATE PREFETCHES: 0 DROPPED PREFETCHES: 0
LLC COMMIT LATE PREFETCHES: 0 NORMAL LATE: 0 MISSED OPPORTUNITY: 0 UNCOVERED: 386059
LLC PREFETCHES SAME FILL-ORIGIN LEVEL: 0 DIFFERENT FILL-ORIGIN LEVEL: 0
LLC AVERAGE MISS LATENCY: 587.663 cycles
LLC AVERAGE MISS LATENCY LOAD: 574.843 cycles
LLC AVERAGE MISS LATENCY PREFETCH: 599.234 cycles
LLC AVERAGE MSHR OCCUPANCY: 11.7749
LLC MSHR FULL: 0
LLC RQ	ACCESS:    7728951	FORWARD:          0	MERGED:          0	TO_CACHE:    7728900
LLC WQ	ACCESS:    9642005	FORWARD:         51	MERGED:          0	TO_CACHE:    9642005
LLC PQ	ACCESS:    2031746	FORWARD:          0	MERGED:          0	TO_CACHE:    2031746

LLC Dense regions hint to LLC: 0

RAW hits: 2503528
Loads Generated: 52231474
Loads sent to L1D: 49727946
Stores Generated: 36944939
Stores sent to L1D: 36944937
Major fault: 0 Minor fault: 96650
Allocated PAGES: 96650
Total Load insts: 61265845
Total Non-spec loads: 3258646
Percentage of speculative loads: 94.6811

LeapFrogging counter: 26591643
Commit hits: 17929200 miss: 28908279
Commit hit %: 38.2796 miss %: 61.7204
Commits not translated: 0
Loads retired: 1892649
Stores retired: 36944937
Cache fills: 1892649
L1D response latency: 243.913 cycles
Load retirement latency: 904.867 cycles
OOO test counter: 0
Discarded buffer inserts: 17929200 hits: 426121 hit %: 2.37669
Filter prediction accuracy: -nan
LATENCY_FILL: 167.451 1889644

DRAM Statistics
 CHANNEL 0
 RQ ROW_BUFFER_HIT:    1058950  ROW_BUFFER_MISS:    8585312
 DBUS_CONGESTED:          7
 WQ ROW_BUFFER_HIT:    2232115  ROW_BUFFER_MISS:    7307683  FULL:      12980

 AVG_CONGESTED_CYCLE: 6
 All warmup complete: 2
Channel 0 Bank busy for read cycles: 0
Channel 0 Bank busy for write cycles: 0
Channel 0
Rank 0
0banks busy for read cycles: 74715198
0banks busy for write cycles: 41399
1banks busy for read cycles: 8163594
1banks busy for write cycles: 4461480
2banks busy for read cycles: 8796439
2banks busy for write cycles: 3643535
3banks busy for read cycles: 12841834
3banks busy for write cycles: 3327791
4banks busy for read cycles: 19352227
4banks busy for write cycles: 3214151
5banks busy for read cycles: 37264200
5banks busy for write cycles: 3337685
6banks busy for read cycles: 49802902
6banks busy for write cycles: 3789043
7banks busy for read cycles: 61168901
7banks busy for write cycles: 13521864
8banks busy for read cycles: 60292582
8banks busy for write cycles: 169596595

CPU 0 Branch Prediction Accuracy: 97.0951% MPKI: 0.52429 Average ROB Occupancy at Mispredict: 176.399
Branch types
NOT_BRANCH: 196389966 98.195%
BRANCH_DIRECT_JUMP: 590927 0.295463%
BRANCH_INDIRECT: 0 0%
BRANCH_CONDITIONAL: 3018804 1.5094%
BRANCH_DIRECT_CALL: 0 0%
BRANCH_INDIRECT_CALL: 0 0%
BRANCH_RETURN: 0 0%
BRANCH_OTHER: 0 0%

DRAM PAGES: 1048576
Allocated PAGES: 96650
