
*** ChampSim Multicore Out-of-Order Simulator ***

Warmup Instructions: 50000000
Simulation Instructions: 200000000
Number of CPUs: 1
LLC sets: 2048
LLC ways: 16
L0D sets: 16
L0D ways: 2
ROB size: 352
LQ size: 128
SQ size: 72
Secure Berti: OFF
Berti: OFF
Berti Fill: OFF
On commit prefetching: OFF
Hit-based filter: OFF
Time-guarding: ON
Free-slotting: ON
Leap-frogging: ON
Train prefetcher on L0D bypass: OFF
No translation penalty for prefetchers: OFF
Prefetch to L0D only: OFF
Prefetch to L1D only: OFF
Clean evictions: ON
Commit loads: ON
Commit write: ON
Fill commit loads to L2C, LLC: ON
DRAM IO FREQUENCY: 6400
ROB SIZE: 352
Off-chip DRAM Size: 4096 MB Channels: 1 Width: 64-bit Data Rate: 6400 MT/s
CPU 0 runs /home/sumon/secure_berti/GhostMinion/../../traces/spec/620.omnetpp_s-141B.champsimtrace.xz
.xz
BTB has LRU replacement policy
ITLB has LRU replacement policy
DTLB has LRU replacement policy
STLB has LRU replacement policy
L1I has LRU replacement policy
L0D has LRU replacement policy
History Sets: 8
History Ways: 16
BERTI Size: 16
BERTI Stride Size: 16
L1D has LRU replacement policy
L2C has LRU replacement policy
LLC has LRU replacement policy
Heartbeat CPU 0 instructions: 10000000 cycles: 7995343 heartbeat IPC: 1.25073 cumulative IPC: 1.25073 (Simulation time: 0 hr 0 min 53 sec) 
Heartbeat CPU 0 instructions: 20000001 cycles: 16036328 heartbeat IPC: 1.24363 cumulative IPC: 1.24717 (Simulation time: 0 hr 1 min 46 sec) 
Heartbeat CPU 0 instructions: 30000000 cycles: 24094551 heartbeat IPC: 1.24097 cumulative IPC: 1.24509 (Simulation time: 0 hr 2 min 39 sec) 
Heartbeat CPU 0 instructions: 40000000 cycles: 32120604 heartbeat IPC: 1.24594 cumulative IPC: 1.24531 (Simulation time: 0 hr 3 min 34 sec) 
Heartbeat CPU 0 instructions: 50000003 cycles: 40192912 heartbeat IPC: 1.2388 cumulative IPC: 1.244 (Simulation time: 0 hr 4 min 35 sec) 

Warmup complete CPU 0 instructions: 50000003 cycles: 40192912 (Simulation time: 0 hr 4 min 35 sec) 

Heartbeat CPU 0 instructions: 60000001 cycles: 82381593 heartbeat IPC: 0.23703 cumulative IPC: 0.23703 (Simulation time: 0 hr 5 min 52 sec) 
Heartbeat CPU 0 instructions: 70000000 cycles: 125041559 heartbeat IPC: 0.234412 cumulative IPC: 0.235714 (Simulation time: 0 hr 7 min 8 sec) 
Heartbeat CPU 0 instructions: 80000003 cycles: 167398641 heartbeat IPC: 0.236088 cumulative IPC: 0.235838 (Simulation time: 0 hr 8 min 27 sec) 
Heartbeat CPU 0 instructions: 90000003 cycles: 209870527 heartbeat IPC: 0.23545 cumulative IPC: 0.235741 (Simulation time: 0 hr 9 min 46 sec) 
Heartbeat CPU 0 instructions: 100000003 cycles: 251928281 heartbeat IPC: 0.237768 cumulative IPC: 0.236144 (Simulation time: 0 hr 11 min 4 sec) 
Heartbeat CPU 0 instructions: 110000000 cycles: 294237679 heartbeat IPC: 0.236354 cumulative IPC: 0.236179 (Simulation time: 0 hr 12 min 25 sec) 
Heartbeat CPU 0 instructions: 120000000 cycles: 336323275 heartbeat IPC: 0.237611 cumulative IPC: 0.236382 (Simulation time: 0 hr 13 min 44 sec) 
Heartbeat CPU 0 instructions: 130000000 cycles: 378550017 heartbeat IPC: 0.236817 cumulative IPC: 0.236437 (Simulation time: 0 hr 15 min 3 sec) 
Heartbeat CPU 0 instructions: 140000000 cycles: 420791893 heartbeat IPC: 0.236732 cumulative IPC: 0.236469 (Simulation time: 0 hr 16 min 22 sec) 
Heartbeat CPU 0 instructions: 150000003 cycles: 463448296 heartbeat IPC: 0.234431 cumulative IPC: 0.236264 (Simulation time: 0 hr 17 min 37 sec) 
Heartbeat CPU 0 instructions: 160000001 cycles: 505757103 heartbeat IPC: 0.236357 cumulative IPC: 0.236272 (Simulation time: 0 hr 18 min 50 sec) 
Heartbeat CPU 0 instructions: 170000000 cycles: 547790794 heartbeat IPC: 0.237904 cumulative IPC: 0.236408 (Simulation time: 0 hr 19 min 59 sec) 
Heartbeat CPU 0 instructions: 180000000 cycles: 589862478 heartbeat IPC: 0.23769 cumulative IPC: 0.236506 (Simulation time: 0 hr 21 min 3 sec) 
Heartbeat CPU 0 instructions: 190000000 cycles: 631778182 heartbeat IPC: 0.238574 cumulative IPC: 0.236652 (Simulation time: 0 hr 22 min 4 sec) 
Heartbeat CPU 0 instructions: 200000000 cycles: 674639730 heartbeat IPC: 0.233309 cumulative IPC: 0.236426 (Simulation time: 0 hr 23 min 18 sec) 
Heartbeat CPU 0 instructions: 210000000 cycles: 717039093 heartbeat IPC: 0.235853 cumulative IPC: 0.23639 (Simulation time: 0 hr 24 min 29 sec) 
Heartbeat CPU 0 instructions: 220000000 cycles: 759700728 heartbeat IPC: 0.234403 cumulative IPC: 0.236273 (Simulation time: 0 hr 25 min 38 sec) 
Heartbeat CPU 0 instructions: 230000001 cycles: 802085893 heartbeat IPC: 0.235932 cumulative IPC: 0.236254 (Simulation time: 0 hr 26 min 45 sec) 
Heartbeat CPU 0 instructions: 240000001 cycles: 844508714 heartbeat IPC: 0.235722 cumulative IPC: 0.236226 (Simulation time: 0 hr 27 min 46 sec) 
Heartbeat CPU 0 instructions: 250000000 cycles: 886115913 heartbeat IPC: 0.240343 cumulative IPC: 0.236428 (Simulation time: 0 hr 28 min 43 sec) 
Finished CPU 0 instructions: 200000001 cycles: 845923002 cumulative IPC: 0.236428 (Simulation time: 0 hr 28 min 43 sec) 
 Instruction ID: 250000041

ChampSim completed all CPUs

Region of Interest Statistics

CPU 0 cumulative IPC: 0.236428 instructions: 200000001 cycles: 845923002
ITLB SPEC fills:          0  NON-SPEC fills:          0
ITLB Test counter :          0
ITLB Leapfrog:          0
ITLB MSHR merge:          0
ITLB TOTAL     ACCESS:   33302255  HIT:   32990151  MISS:     312104  HIT %:    99.0628  MISS %:   0.937186   MPKI: 1.56052
ITLB LOAD TRANSLATION NON_SPEC    ACCESS:   33302255  HIT:   32990151  MISS:     312104  HIT %:    99.0628  MISS %:   0.937186   MPKI: 1.56052
ITLB PREFETCH  REQUESTED:          0  ISSUED:          0  USEFUL:          0  USELESS:          0
ITLB USEFUL LOAD PREFETCHES:          0 PREFETCH ISSUED TO LOWER LEVEL:          0  ACCURACY: -nan
ITLB TIMELY PREFETCHES:          0 LATE PREFETCHES: 0 DROPPED PREFETCHES: 0
ITLB COMMIT LATE PREFETCHES: 0 NORMAL LATE: 0 MISSED OPPORTUNITY: 0 UNCOVERED: 0
ITLB PREFETCHES SAME FILL-ORIGIN LEVEL: 0 DIFFERENT FILL-ORIGIN LEVEL: 0
ITLB AVERAGE MISS LATENCY: 10.1739 cycles
ITLB AVERAGE MISS LATENCY LOAD: -nan cycles
ITLB AVERAGE MISS LATENCY PREFETCH: -nan cycles
ITLB AVERAGE MSHR OCCUPANCY: 0.00922669
ITLB MSHR FULL: 0
ITLB RQ	ACCESS:   37446203	FORWARD:          0	MERGED:    4061414	TO_CACHE:   33384789

DTLB SPEC fills:          0  NON-SPEC fills:          0
DTLB Test counter :          0
DTLB Leapfrog:          0
DTLB MSHR merge:          0
DTLB TOTAL     ACCESS:   81627133  HIT:   77462805  MISS:    4164328  HIT %:    94.8984  MISS %:    5.10165   MPKI: 20.8216
DTLB LOAD TRANSLATION NON_SPEC    ACCESS:   81627133  HIT:   77462805  MISS:    4164328  HIT %:    94.8984  MISS %:    5.10165   MPKI: 20.8216
DTLB PREFETCH  REQUESTED:          0  ISSUED:          0  USEFUL:          0  USELESS:          0
DTLB USEFUL LOAD PREFETCHES:          0 PREFETCH ISSUED TO LOWER LEVEL:          0  ACCURACY: -nan
DTLB TIMELY PREFETCHES:          0 LATE PREFETCHES: 0 DROPPED PREFETCHES: 0
DTLB COMMIT LATE PREFETCHES: 0 NORMAL LATE: 0 MISSED OPPORTUNITY: 0 UNCOVERED: 0
DTLB PREFETCHES SAME FILL-ORIGIN LEVEL: 0 DIFFERENT FILL-ORIGIN LEVEL: 0
DTLB AVERAGE MISS LATENCY: 39.7013 cycles
DTLB AVERAGE MISS LATENCY LOAD: -nan cycles
DTLB AVERAGE MISS LATENCY PREFETCH: -nan cycles
DTLB AVERAGE MSHR OCCUPANCY: 0.131404
DTLB MSHR FULL: 4.62461e-05
DTLB RQ	ACCESS:   92556967	FORWARD:          0	MERGED:   10824005	TO_CACHE:   81732962

STLB SPEC fills:          0  NON-SPEC fills:          0
STLB Test counter :          0
STLB Leapfrog:          0
STLB MSHR merge:          0
STLB TOTAL     ACCESS:    4580343  HIT:    3597444  MISS:     982899  HIT %:    78.5409  MISS %:    21.4591   MPKI: 4.91449
STLB LOAD TRANSLATION NON_SPEC    ACCESS:    4476432  HIT:    3512160  MISS:     964272  HIT %:    78.4589  MISS %:    21.5411   MPKI: 4.82136
STLB TRANSLATION FROM L1D PREFETCHER NON_SPEC    ACCESS:     103911  HIT:      85284  MISS:      18627  HIT %:    82.0741  MISS %:    17.9259   MPKI: 0.093135
STLB PREFETCH  REQUESTED:          0  ISSUED:          0  USEFUL:      12468  USELESS:       6160
STLB USEFUL LOAD PREFETCHES:      12468 PREFETCH ISSUED TO LOWER LEVEL:          0  ACCURACY: inf
STLB TIMELY PREFETCHES:      12468 LATE PREFETCHES: 7 DROPPED PREFETCHES: 18524
STLB COMMIT LATE PREFETCHES: 0 NORMAL LATE: 7 MISSED OPPORTUNITY: 0 UNCOVERED: 18446744073709551609
STLB PREFETCHES SAME FILL-ORIGIN LEVEL: 0 DIFFERENT FILL-ORIGIN LEVEL: 0
STLB AVERAGE MISS LATENCY: 132.285 cycles
STLB AVERAGE MISS LATENCY LOAD: -nan cycles
STLB AVERAGE MISS LATENCY PREFETCH: -nan cycles
STLB AVERAGE MSHR OCCUPANCY: 0.116825
STLB MSHR FULL: 0
STLB RQ	ACCESS:    4653106	FORWARD:          0	MERGED:      53979	TO_CACHE:    4599127

STLB Hit, L1D data hit: 0
STLB Hit, L2C data hit: 0
STLB Hit, LLC data hit: 0
STLB Hit, LLC data miss: 0
STLB STLB hints to L2: 0
L0D SPEC fills:   23210749  NON-SPEC fills:          0
L0D TimeGuard Request with older TS:     267829 Restricted eviction:     141255 read:     304445
L0D Test counter :          0
L0D Leapfrog:          0
L0D MSHR merge:    1006551
L0D TOTAL     ACCESS:   54405315  HIT:    6934440  MISS:   47470875  HIT %:    12.7459  MISS %:    87.2541   MPKI: 237.354
L0D LOAD      TOTAL       ACCESS:   54405315  HIT:    6934440  MISS:   47470875  HIT %:    12.7459  MISS %:    87.2541   MPKI: 237.354
L0D LOAD      NON_SPEC    ACCESS:   24329191  HIT:     210308  MISS:   24118883  HIT %:   0.864427  MISS %:    99.1356   MPKI: 120.594
L0D LOAD      SPEC        ACCESS:   30076124  HIT:    6724132  MISS:   23351992  HIT %:     22.357  MISS %:     77.643   MPKI: 116.76
L0D PREFETCH  REQUESTED:          0  ISSUED:          0  USEFUL:          0  USELESS:          0
L0D USEFUL LOAD PREFETCHES:          0 PREFETCH ISSUED TO LOWER LEVEL:          0  ACCURACY: -nan
L0D TIMELY PREFETCHES:          0 LATE PREFETCHES: 0 DROPPED PREFETCHES: 0
L0D COMMIT LATE PREFETCHES: 0 NORMAL LATE: 0 MISSED OPPORTUNITY: 0 UNCOVERED: 47470875
L0D PREFETCHES SAME FILL-ORIGIN LEVEL: 0 DIFFERENT FILL-ORIGIN LEVEL: 0
L0D AVERAGE MISS LATENCY: 12.8253 cycles
L0D AVERAGE MISS LATENCY LOAD: 12.8253 cycles
L0D AVERAGE MISS LATENCY PREFETCH: -nan cycles
L0D AVERAGE MSHR OCCUPANCY: 0.546073
L0D MSHR FULL: 2.88559e-05
L0D RQ	ACCESS:   63412424	FORWARD:          0	MERGED:    8000564	TO_CACHE:   55411860
L0D WQ	ACCESS:   37145107	FORWARD:          0	MERGED:          0	TO_CACHE:   37145107

L1D SPEC fills:          0  NON-SPEC fills:     636725
L1D Test counter :          0
L1D Leapfrog:          0
L1D MSHR merge:      25941
L1D TOTAL     ACCESS:  115420030  HIT:  109068050  MISS:    6351980  HIT %:    94.4966  MISS %:    5.50336   MPKI: 31.7599
L1D LOAD      TOTAL       ACCESS:   47444939  HIT:   44171778  MISS:    3273161  HIT %:    93.1011  MISS %:    6.89886   MPKI: 16.3658
L1D LOAD      NON_SPEC    ACCESS:   24110339  HIT:   23473614  MISS:     636725  HIT %:    97.3591  MISS %:    2.64088   MPKI: 3.18362
L1D LOAD      SPEC        ACCESS:   23334600  HIT:   20698164  MISS:    2636436  HIT %:    88.7016  MISS %:    11.2984   MPKI: 13.1822
L1D RFO       NON_SPEC    ACCESS:   34490381  HIT:   34029112  MISS:     461269  HIT %:    98.6626  MISS %:    1.33738   MPKI: 2.30634
L1D PREFETCH  NON_SPEC    ACCESS:      22014  HIT:      13415  MISS:       8599  HIT %:    60.9385  MISS %:    39.0615   MPKI: 0.042995
L1D COMMIT LOAD NON_SPEC    ACCESS:   10534396  HIT:   10517642  MISS:      16754  HIT %:     99.841  MISS %:   0.159041   MPKI: 0.08377
L1D COMMIT WRITE NON_SPEC    ACCESS:   22928300  HIT:   20336103  MISS:    2592197  HIT %:    88.6943  MISS %:    11.3057   MPKI: 12.961
L1D PREFETCH  REQUESTED:     178764  ISSUED:     178757  USEFUL:       4187  USELESS:       4412
L1D USEFUL LOAD PREFETCHES:       4187 PREFETCH ISSUED TO LOWER LEVEL:     141596  ACCURACY: 2.957
L1D TIMELY PREFETCHES:       4187 LATE PREFETCHES: 6 DROPPED PREFETCHES: 21110
L1D COMMIT LATE PREFETCHES: 0 NORMAL LATE: 6 MISSED OPPORTUNITY: 0 UNCOVERED: 3273155
L1D PREFETCHES SAME FILL-ORIGIN LEVEL: 8605 DIFFERENT FILL-ORIGIN LEVEL: 132991
L1D AVERAGE MISS LATENCY: 67.472 cycles
L1D AVERAGE MISS LATENCY LOAD: 112.004 cycles
L1D AVERAGE MISS LATENCY PREFETCH: 119.563 cycles
L1D AVERAGE MSHR OCCUPANCY: 0.238646
L1D MSHR FULL: 0
L1D RQ	ACCESS:   63477429	FORWARD:          0	MERGED:    3959777	TO_CACHE:   58006463
L1D WQ	ACCESS:   60168723	FORWARD:    1511189	MERGED:    1813223	TO_CACHE:   58355500
L1D PQ	ACCESS:     178757	FORWARD:          0	MERGED:       2083	TO_CACHE:     176674

L1D UNIQUE REGIONS ACCESSED: 0
L1D REGIONS CONFLICTS: 0
L1D Cross Page Prefetch Requests: 111084
L1D Same Page Prefetch Requests: 115863
L1D ROI Sum of L1D PQ occupancy: 7187726
L1D PREFETCHES PUSHED FROM L2C: 0
L1I SPEC fills:          0  NON-SPEC fills:          0
L1I Test counter :          0
L1I Leapfrog:          0
L1I MSHR merge:      37704
L1I TOTAL     ACCESS:   37408500  HIT:   37287562  MISS:     120938  HIT %:    99.6767  MISS %:    0.32329   MPKI: 0.60469
L1I LOAD      TOTAL       ACCESS:   37408500  HIT:   37287562  MISS:     120938  HIT %:    99.6767  MISS %:    0.32329   MPKI: 0.60469
L1I LOAD      NON_SPEC    ACCESS:   37408500  HIT:   37287562  MISS:     120938  HIT %:    99.6767  MISS %:    0.32329   MPKI: 0.60469
L1I PREFETCH  REQUESTED:          0  ISSUED:          0  USEFUL:          0  USELESS:          0
L1I USEFUL LOAD PREFETCHES:          0 PREFETCH ISSUED TO LOWER LEVEL:          0  ACCURACY: -nan
L1I TIMELY PREFETCHES:          0 LATE PREFETCHES: 0 DROPPED PREFETCHES: 0
L1I COMMIT LATE PREFETCHES: 0 NORMAL LATE: 0 MISSED OPPORTUNITY: 0 UNCOVERED: 120938
L1I PREFETCHES SAME FILL-ORIGIN LEVEL: 0 DIFFERENT FILL-ORIGIN LEVEL: 0
L1I AVERAGE MISS LATENCY: 27.2193 cycles
L1I AVERAGE MISS LATENCY LOAD: 27.2193 cycles
L1I AVERAGE MISS LATENCY PREFETCH: -nan cycles
L1I AVERAGE MSHR OCCUPANCY: 0.00491476
L1I MSHR FULL: 0
L1I RQ	ACCESS:   56566505	FORWARD:          0	MERGED:   19120302	TO_CACHE:   37446203

BTB SPEC fills:          0  NON-SPEC fills:          0
BTB Test counter :          0
BTB Leapfrog:          0
BTB MSHR merge:          0
BTB TOTAL     ACCESS:   32873214  HIT:   30947951  MISS:    1925263  HIT %:    94.1434  MISS %:    5.85663   MPKI: 9.62631
BTB BRANCH_DIRECT_JUMP	ACCESS:    2330259  HIT:    2330115  MISS:        144
BTB BRANCH_INDIRECT	ACCESS:     674228  HIT:     571149  MISS:     103079
BTB BRANCH_CONDITIONAL	ACCESS:   17721648  HIT:   17721119  MISS:        529
BTB BRANCH_DIRECT_CALL	ACCESS:    3701835  HIT:    3701543  MISS:        292
BTB BRANCH_INDIRECT_CALL	ACCESS:    2371706  HIT:    2363088  MISS:       8618
BTB BRANCH_RETURN	ACCESS:    6073538  HIT:    4260937  MISS:    1812601
BTB BRANCH_OTHER ACCESS:          0  HIT:          0  MISS:          0

L2C SPEC fills:          0  NON-SPEC fills:     416564
L2C Test counter :          0
L2C Leapfrog:          0
L2C MSHR merge:         62
L2C TOTAL     ACCESS:   12448313  HIT:    6942421  MISS:    5505892  HIT %:      55.77  MISS %:      44.23   MPKI: 27.5295
L2C LOAD      TOTAL       ACCESS:    3393987  HIT:     963474  MISS:    2430513  HIT %:    28.3877  MISS %:    71.6123   MPKI: 12.1526
L2C LOAD      NON_SPEC    ACCESS:     757644  HIT:     320798  MISS:     436846  HIT %:    42.3415  MISS %:    57.6585   MPKI: 2.18423
L2C LOAD      SPEC        ACCESS:    2636343  HIT:     642676  MISS:    1993667  HIT %:    24.3776  MISS %:    75.6224   MPKI: 9.96833
L2C RFO       NON_SPEC    ACCESS:     461252  HIT:      79253  MISS:     381999  HIT %:    17.1821  MISS %:    82.8179   MPKI: 1.90999
L2C PREFETCH  NON_SPEC    ACCESS:     141294  HIT:      28628  MISS:     112666  HIT %:    20.2613  MISS %:    79.7387   MPKI: 0.56333
L2C WRITEBACK NON_SPEC    ACCESS:     595863  HIT:     594583  MISS:       1280  HIT %:    99.7852  MISS %:   0.214814   MPKI: 0.0064
L2C CLEAN_EVICTION NON_SPEC    ACCESS:    2832201  HIT:     837055  MISS:    1995146  HIT %:    29.5549  MISS %:    70.4451   MPKI: 9.97573
L2C COMMIT LOAD NON_SPEC    ACCESS:      16723  HIT:       6572  MISS:      10151  HIT %:    39.2992  MISS %:    60.7008   MPKI: 0.050755
L2C LOAD TRANSLATION NON_SPEC    ACCESS:    4821325  HIT:    4250839  MISS:     570486  HIT %:    88.1674  MISS %:    11.8326   MPKI: 2.85243
L2C TRANSLATION FROM L1D PREFETCHER NON_SPEC    ACCESS:     185668  HIT:     182017  MISS:       3651  HIT %:    98.0336  MISS %:    1.96641   MPKI: 0.018255
L2C PREFETCH  REQUESTED:          0  ISSUED:          0  USEFUL:      35622  USELESS:      80796
L2C USEFUL LOAD PREFETCHES:      35622 PREFETCH ISSUED TO LOWER LEVEL:     112730  ACCURACY: 31.5994
L2C TIMELY PREFETCHES:      35622 LATE PREFETCHES: 64 DROPPED PREFETCHES: 0
L2C COMMIT LATE PREFETCHES: 0 NORMAL LATE: 64 MISSED OPPORTUNITY: 0 UNCOVERED: 2430449
L2C PREFETCHES SAME FILL-ORIGIN LEVEL: 107971 DIFFERENT FILL-ORIGIN LEVEL: 0
L2C AVERAGE MISS LATENCY: 82.3565 cycles
L2C AVERAGE MISS LATENCY LOAD: 135.496 cycles
L2C AVERAGE MISS LATENCY PREFETCH: 190.412 cycles
L2C AVERAGE MSHR OCCUPANCY: 0.40219
L2C MSHR FULL: 0
L2C RQ	ACCESS:    8879108	FORWARD:          0	MERGED:          0	TO_CACHE:    8878955
L2C WQ	ACCESS:    3428064	FORWARD:        154	MERGED:          0	TO_CACHE:    3428064
L2C PQ	ACCESS:     141596	FORWARD:          0	MERGED:          0	TO_CACHE:     141595

L2C Instructions Evicting Data 16566
L2C Translations Evicting Data 483734
L2C Data Evicting Data 763068
L2C Instructions Evicting Instructions 443
L2C Translations Evicting Instructions 3278
L2C Data Evicting Instructions 5276
L2C Instructions Evicting Translations 3273
L2C Translations Evicting Translations 87125
L2C Data Evicting Translations 153036
L2C Dense regions hint from L2: 0
PSCL5 SPEC fills:          0  NON-SPEC fills:          0
PSCL5 Test counter :          0
PSCL5 Leapfrog:          0
PSCL5 MSHR merge:          0
PSCL5 TOTAL     ACCESS:          0  HIT:          0  MISS:          0  HIT %:       -nan  MISS %:       -nan   MPKI: 0
PSCL5 PREFETCH  REQUESTED:          0  ISSUED:          0  USEFUL:          0  USELESS:          0
PSCL5 USEFUL LOAD PREFETCHES:          0 PREFETCH ISSUED TO LOWER LEVEL:          0  ACCURACY: -nan
PSCL5 TIMELY PREFETCHES:          0 LATE PREFETCHES: 0 DROPPED PREFETCHES: 0
PSCL5 COMMIT LATE PREFETCHES: 0 NORMAL LATE: 0 MISSED OPPORTUNITY: 0 UNCOVERED: 0
PSCL5 PREFETCHES SAME FILL-ORIGIN LEVEL: 0 DIFFERENT FILL-ORIGIN LEVEL: 0

PSCL4 SPEC fills:          0  NON-SPEC fills:          0
PSCL4 Test counter :          0
PSCL4 Leapfrog:          0
PSCL4 MSHR merge:          0
PSCL4 TOTAL     ACCESS:          0  HIT:          0  MISS:          0  HIT %:       -nan  MISS %:       -nan   MPKI: 0
PSCL4 PREFETCH  REQUESTED:          0  ISSUED:          0  USEFUL:          0  USELESS:          0
PSCL4 USEFUL LOAD PREFETCHES:          0 PREFETCH ISSUED TO LOWER LEVEL:          0  ACCURACY: -nan
PSCL4 TIMELY PREFETCHES:          0 LATE PREFETCHES: 0 DROPPED PREFETCHES: 0
PSCL4 COMMIT LATE PREFETCHES: 0 NORMAL LATE: 0 MISSED OPPORTUNITY: 0 UNCOVERED: 0
PSCL4 PREFETCHES SAME FILL-ORIGIN LEVEL: 0 DIFFERENT FILL-ORIGIN LEVEL: 0

PSCL3 SPEC fills:          0  NON-SPEC fills:          0
PSCL3 Test counter :          0
PSCL3 Leapfrog:          0
PSCL3 MSHR merge:          0
PSCL3 TOTAL     ACCESS:          0  HIT:          0  MISS:          0  HIT %:       -nan  MISS %:       -nan   MPKI: 0
PSCL3 PREFETCH  REQUESTED:          0  ISSUED:          0  USEFUL:          0  USELESS:          0
PSCL3 USEFUL LOAD PREFETCHES:          0 PREFETCH ISSUED TO LOWER LEVEL:          0  ACCURACY: -nan
PSCL3 TIMELY PREFETCHES:          0 LATE PREFETCHES: 0 DROPPED PREFETCHES: 0
PSCL3 COMMIT LATE PREFETCHES: 0 NORMAL LATE: 0 MISSED OPPORTUNITY: 0 UNCOVERED: 0
PSCL3 PREFETCHES SAME FILL-ORIGIN LEVEL: 0 DIFFERENT FILL-ORIGIN LEVEL: 0

PSCL2 SPEC fills:          0  NON-SPEC fills:          0
PSCL2 Test counter :          0
PSCL2 Leapfrog:          0
PSCL2 MSHR merge:          0
PSCL2 TOTAL     ACCESS:          0  HIT:          0  MISS:          0  HIT %:       -nan  MISS %:       -nan   MPKI: 0
PSCL2 PREFETCH  REQUESTED:          0  ISSUED:          0  USEFUL:          0  USELESS:          0
PSCL2 USEFUL LOAD PREFETCHES:          0 PREFETCH ISSUED TO LOWER LEVEL:          0  ACCURACY: -nan
PSCL2 TIMELY PREFETCHES:          0 LATE PREFETCHES: 0 DROPPED PREFETCHES: 0
PSCL2 COMMIT LATE PREFETCHES: 0 NORMAL LATE: 0 MISSED OPPORTUNITY: 0 UNCOVERED: 0
PSCL2 PREFETCHES SAME FILL-ORIGIN LEVEL: 0 DIFFERENT FILL-ORIGIN LEVEL: 0

LLC SPEC fills:          0  NON-SPEC fills:     285453
LLC Test counter :          0
LLC Leapfrog:          0
LLC MSHR merge:          0
LLC TOTAL     ACCESS:    6201113  HIT:    2241237  MISS:    3959876  HIT %:    36.1425  MISS %:    63.8575   MPKI: 19.7994
LLC LOAD      TOTAL       ACCESS:    2430448  HIT:     580487  MISS:    1849961  HIT %:     23.884  MISS %:     76.116   MPKI: 9.2498
LLC LOAD      NON_SPEC    ACCESS:     436845  HIT:     145677  MISS:     291168  HIT %:    33.3475  MISS %:    66.6525   MPKI: 1.45584
LLC LOAD      SPEC        ACCESS:    1993603  HIT:     434810  MISS:    1558793  HIT %:    21.8103  MISS %:    78.1897   MPKI: 7.79396
LLC RFO       NON_SPEC    ACCESS:     381993  HIT:     139325  MISS:     242668  HIT %:    36.4732  MISS %:    63.5268   MPKI: 1.21334
LLC PREFETCH  NON_SPEC    ACCESS:     112730  HIT:       3709  MISS:     109021  HIT %:    3.29016  MISS %:    96.7098   MPKI: 0.545105
LLC WRITEBACK NON_SPEC    ACCESS:     472506  HIT:     471421  MISS:       1085  HIT %:    99.7704  MISS %:   0.229627   MPKI: 0.005425
LLC CLEAN_EVICTION NON_SPEC    ACCESS:    2219149  HIT:     652062  MISS:    1567087  HIT %:    29.3834  MISS %:    70.6166   MPKI: 7.83543
LLC COMMIT LOAD NON_SPEC    ACCESS:      10150  HIT:       2831  MISS:       7319  HIT %:    27.8916  MISS %:    72.1084   MPKI: 0.036595
LLC LOAD TRANSLATION NON_SPEC    ACCESS:     570486  HIT:     389367  MISS:     181119  HIT %:    68.2518  MISS %:    31.7482   MPKI: 0.905595
LLC TRANSLATION FROM L1D PREFETCHER NON_SPEC    ACCESS:       3651  HIT:       2035  MISS:       1616  HIT %:    55.7382  MISS %:    44.2618   MPKI: 0.00808
LLC PREFETCH  REQUESTED:          0  ISSUED:          0  USEFUL:       3394  USELESS:     107224
LLC USEFUL LOAD PREFETCHES:       3394 PREFETCH ISSUED TO LOWER LEVEL:     109021  ACCURACY: 3.11316
LLC TIMELY PREFETCHES:       3394 LATE PREFETCHES: 0 DROPPED PREFETCHES: 0
LLC COMMIT LATE PREFETCHES: 0 NORMAL LATE: 0 MISSED OPPORTUNITY: 0 UNCOVERED: 1849961
LLC PREFETCHES SAME FILL-ORIGIN LEVEL: 0 DIFFERENT FILL-ORIGIN LEVEL: 0
LLC AVERAGE MISS LATENCY: 92.4458 cycles
LLC AVERAGE MISS LATENCY LOAD: 148.286 cycles
LLC AVERAGE MISS LATENCY PREFETCH: 165.846 cycles
LLC AVERAGE MSHR OCCUPANCY: 0.386888
LLC MSHR FULL: 0
LLC RQ	ACCESS:    3396736	FORWARD:          0	MERGED:          0	TO_CACHE:    3396728
LLC WQ	ACCESS:    2691655	FORWARD:          8	MERGED:          0	TO_CACHE:    2691655
LLC PQ	ACCESS:     112730	FORWARD:          0	MERGED:          0	TO_CACHE:     112730

LLC Dense regions hint to LLC: 0

RAW hits: 3460115
Loads Generated: 66872539
Loads sent to L1D: 63412424
Stores Generated: 37145093
Stores sent to L1D: 37145107
Major fault: 0 Minor fault: 53031
Allocated PAGES: 53031
Total Load insts: 78555236
Total Non-spec loads: 27796436
Percentage of speculative loads: 64.6154

LeapFrogging counter: 546
Commit hits: 23023617 miss: 16006557
Commit hit %: 58.9893 miss %: 41.0107
Commits not translated: 0
Loads retired: 3273161
Stores retired: 37145107
Cache fills: 3273161
L1D response latency: 112.004 cycles
Load retirement latency: 200.715 cycles
OOO test counter: 0
Discarded buffer inserts: 23023617 hits: 6950 hit %: 0.0301864
Filter prediction accuracy: -nan
LATENCY_FILL: 111.584 3291823

DRAM Statistics
 CHANNEL 0
 RQ ROW_BUFFER_HIT:     175586  ROW_BUFFER_MISS:    2216101
 DBUS_CONGESTED:       1109
 WQ ROW_BUFFER_HIT:     377161  ROW_BUFFER_MISS:    1675784  FULL:          0

 AVG_CONGESTED_CYCLE: 3
 All warmup complete: 2
Channel 0 Bank busy for read cycles: 0
Channel 0 Bank busy for write cycles: 0
Channel 0
Rank 0
0banks busy for read cycles: 367839485
0banks busy for write cycles: 756553
1banks busy for read cycles: 189239840
1banks busy for write cycles: 122236567
2banks busy for read cycles: 46629900
2banks busy for write cycles: 58831774
3banks busy for read cycles: 11774578
3banks busy for write cycles: 26220124
4banks busy for read cycles: 4316611
4banks busy for write cycles: 10697291
5banks busy for read cycles: 724881
5banks busy for write cycles: 4145592
6banks busy for read cycles: 221299
6banks busy for write cycles: 1539063
7banks busy for read cycles: 103658
7banks busy for write cycles: 482532
8banks busy for read cycles: 53934
8banks busy for write cycles: 109321

CPU 0 Branch Prediction Accuracy: 98.172% MPKI: 3.83776 Average ROB Occupancy at Mispredict: 36.8214
Branch types
NOT_BRANCH: 158010836 79.0054%
BRANCH_DIRECT_JUMP: 2330259 1.16513%
BRANCH_INDIRECT: 674228 0.337114%
BRANCH_CONDITIONAL: 26837262 13.4186%
BRANCH_DIRECT_CALL: 3701835 1.85092%
BRANCH_INDIRECT_CALL: 2371706 1.18585%
BRANCH_RETURN: 6073538 3.03677%
BRANCH_OTHER: 0 0%

DRAM PAGES: 1048576
Allocated PAGES: 53031
