
*** ChampSim Multicore Out-of-Order Simulator ***

Warmup Instructions: 50000000
Simulation Instructions: 200000000
Number of CPUs: 1
LLC sets: 2048
LLC ways: 16
L0D sets: 16
L0D ways: 2
ROB size: 352
LQ size: 128
SQ size: 72
Secure Berti: OFF
Berti: OFF
Berti Fill: OFF
On commit prefetching: OFF
Hit-based filter: OFF
Time-guarding: ON
Free-slotting: ON
Leap-frogging: ON
Train prefetcher on L0D bypass: OFF
No translation penalty for prefetchers: OFF
Prefetch to L0D only: OFF
Prefetch to L1D only: OFF
Clean evictions: ON
Commit loads: ON
Commit write: ON
Fill commit loads to L2C, LLC: ON
DRAM IO FREQUENCY: 6400
ROB SIZE: 352
Off-chip DRAM Size: 4096 MB Channels: 1 Width: 64-bit Data Rate: 6400 MT/s
CPU 0 runs /home/sumon/secure_berti/GhostMinion/../../traces/spec/621.wrf_s-6673B.champsimtrace.xz
.xz
BTB has LRU replacement policy
ITLB has LRU replacement policy
DTLB has LRU replacement policy
STLB has LRU replacement policy
L1I has LRU replacement policy
L0D has LRU replacement policy
History Sets: 8
History Ways: 16
BERTI Size: 16
BERTI Stride Size: 16
L1D has LRU replacement policy
L2C has LRU replacement policy
LLC has LRU replacement policy
Heartbeat CPU 0 instructions: 10000002 cycles: 5236310 heartbeat IPC: 1.90974 cumulative IPC: 1.90974 (Simulation time: 0 hr 0 min 46 sec) 
Heartbeat CPU 0 instructions: 20000002 cycles: 8435713 heartbeat IPC: 3.12558 cumulative IPC: 2.37087 (Simulation time: 0 hr 1 min 23 sec) 
Heartbeat CPU 0 instructions: 30000001 cycles: 11538977 heartbeat IPC: 3.22241 cumulative IPC: 2.59988 (Simulation time: 0 hr 1 min 56 sec) 
Heartbeat CPU 0 instructions: 40000002 cycles: 14606195 heartbeat IPC: 3.26028 cumulative IPC: 2.73856 (Simulation time: 0 hr 2 min 32 sec) 
Heartbeat CPU 0 instructions: 50000001 cycles: 17702835 heartbeat IPC: 3.22931 cumulative IPC: 2.82441 (Simulation time: 0 hr 3 min 6 sec) 

Warmup complete CPU 0 instructions: 50000001 cycles: 17702835 (Simulation time: 0 hr 3 min 6 sec) 

Heartbeat CPU 0 instructions: 60000000 cycles: 33436253 heartbeat IPC: 0.63559 cumulative IPC: 0.63559 (Simulation time: 0 hr 3 min 59 sec) 
Heartbeat CPU 0 instructions: 70000000 cycles: 51222141 heartbeat IPC: 0.562244 cumulative IPC: 0.596671 (Simulation time: 0 hr 4 min 54 sec) 
Heartbeat CPU 0 instructions: 80000000 cycles: 65717942 heartbeat IPC: 0.689855 cumulative IPC: 0.624803 (Simulation time: 0 hr 5 min 42 sec) 
Heartbeat CPU 0 instructions: 90000003 cycles: 80582607 heartbeat IPC: 0.672737 cumulative IPC: 0.636135 (Simulation time: 0 hr 6 min 34 sec) 
Heartbeat CPU 0 instructions: 100000000 cycles: 101161433 heartbeat IPC: 0.485936 cumulative IPC: 0.599099 (Simulation time: 0 hr 7 min 33 sec) 
Heartbeat CPU 0 instructions: 110000000 cycles: 109503753 heartbeat IPC: 1.19871 cumulative IPC: 0.653588 (Simulation time: 0 hr 8 min 10 sec) 
Heartbeat CPU 0 instructions: 120000003 cycles: 119986927 heartbeat IPC: 0.95391 cumulative IPC: 0.684368 (Simulation time: 0 hr 8 min 51 sec) 
Heartbeat CPU 0 instructions: 130000000 cycles: 129098734 heartbeat IPC: 1.09748 cumulative IPC: 0.718159 (Simulation time: 0 hr 9 min 27 sec) 
Heartbeat CPU 0 instructions: 140000001 cycles: 138668691 heartbeat IPC: 1.04494 cumulative IPC: 0.744012 (Simulation time: 0 hr 10 min 8 sec) 
Heartbeat CPU 0 instructions: 150000001 cycles: 149119731 heartbeat IPC: 0.956843 cumulative IPC: 0.760937 (Simulation time: 0 hr 10 min 46 sec) 
Heartbeat CPU 0 instructions: 160000001 cycles: 157878497 heartbeat IPC: 1.14171 cumulative IPC: 0.78473 (Simulation time: 0 hr 11 min 25 sec) 
Heartbeat CPU 0 instructions: 170000001 cycles: 168390618 heartbeat IPC: 0.951283 cumulative IPC: 0.796349 (Simulation time: 0 hr 12 min 6 sec) 
Heartbeat CPU 0 instructions: 180000000 cycles: 177325123 heartbeat IPC: 1.11926 cumulative IPC: 0.814423 (Simulation time: 0 hr 12 min 43 sec) 
Heartbeat CPU 0 instructions: 190000000 cycles: 190056378 heartbeat IPC: 0.785469 cumulative IPC: 0.812284 (Simulation time: 0 hr 13 min 26 sec) 
Heartbeat CPU 0 instructions: 200000003 cycles: 202076434 heartbeat IPC: 0.831943 cumulative IPC: 0.813565 (Simulation time: 0 hr 14 min 5 sec) 
Heartbeat CPU 0 instructions: 210000000 cycles: 214124900 heartbeat IPC: 0.829981 cumulative IPC: 0.814572 (Simulation time: 0 hr 14 min 43 sec) 
Heartbeat CPU 0 instructions: 220000000 cycles: 226331902 heartbeat IPC: 0.819202 cumulative IPC: 0.814843 (Simulation time: 0 hr 15 min 21 sec) 
Heartbeat CPU 0 instructions: 230000001 cycles: 241855290 heartbeat IPC: 0.644189 cumulative IPC: 0.803025 (Simulation time: 0 hr 16 min 4 sec) 
Heartbeat CPU 0 instructions: 240000000 cycles: 256551942 heartbeat IPC: 0.680427 cumulative IPC: 0.795481 (Simulation time: 0 hr 16 min 50 sec) 
Heartbeat CPU 0 instructions: 250000000 cycles: 265066046 heartbeat IPC: 1.17452 cumulative IPC: 0.808528 (Simulation time: 0 hr 17 min 25 sec) 
Finished CPU 0 instructions: 200000003 cycles: 247363212 cumulative IPC: 0.808528 (Simulation time: 0 hr 17 min 25 sec) 
 Instruction ID: 250000085

ChampSim completed all CPUs

Region of Interest Statistics

CPU 0 cumulative IPC: 0.808528 instructions: 200000003 cycles: 247363212
ITLB SPEC fills:          0  NON-SPEC fills:          0
ITLB Test counter :          0
ITLB Leapfrog:          0
ITLB MSHR merge:          0
ITLB TOTAL     ACCESS:   29015796  HIT:   29015625  MISS:        171  HIT %:    99.9994  MISS %: 0.000589334   MPKI: 0.000855
ITLB LOAD TRANSLATION NON_SPEC    ACCESS:   29015796  HIT:   29015625  MISS:        171  HIT %:    99.9994  MISS %: 0.000589334   MPKI: 0.000855
ITLB PREFETCH  REQUESTED:          0  ISSUED:          0  USEFUL:          0  USELESS:          0
ITLB USEFUL LOAD PREFETCHES:          0 PREFETCH ISSUED TO LOWER LEVEL:          0  ACCURACY: -nan
ITLB TIMELY PREFETCHES:          0 LATE PREFETCHES: 0 DROPPED PREFETCHES: 0
ITLB COMMIT LATE PREFETCHES: 0 NORMAL LATE: 0 MISSED OPPORTUNITY: 0 UNCOVERED: 0
ITLB PREFETCHES SAME FILL-ORIGIN LEVEL: 0 DIFFERENT FILL-ORIGIN LEVEL: 0
ITLB AVERAGE MISS LATENCY: 339.041 cycles
ITLB AVERAGE MISS LATENCY LOAD: -nan cycles
ITLB AVERAGE MISS LATENCY PREFETCH: -nan cycles
ITLB AVERAGE MSHR OCCUPANCY: 2.34355e-06
ITLB MSHR FULL: 0
ITLB RQ	ACCESS:   35180022	FORWARD:          0	MERGED:    6164169	TO_CACHE:   29015853

DTLB SPEC fills:          0  NON-SPEC fills:          0
DTLB Test counter :          0
DTLB Leapfrog:          0
DTLB MSHR merge:          0
DTLB TOTAL     ACCESS:   50936358  HIT:   50735864  MISS:     200494  HIT %:    99.6064  MISS %:   0.393617   MPKI: 1.00247
DTLB LOAD TRANSLATION NON_SPEC    ACCESS:   50936358  HIT:   50735864  MISS:     200494  HIT %:    99.6064  MISS %:   0.393617   MPKI: 1.00247
DTLB PREFETCH  REQUESTED:          0  ISSUED:          0  USEFUL:          0  USELESS:          0
DTLB USEFUL LOAD PREFETCHES:          0 PREFETCH ISSUED TO LOWER LEVEL:          0  ACCURACY: -nan
DTLB TIMELY PREFETCHES:          0 LATE PREFETCHES: 0 DROPPED PREFETCHES: 0
DTLB COMMIT LATE PREFETCHES: 0 NORMAL LATE: 0 MISSED OPPORTUNITY: 0 UNCOVERED: 0
DTLB PREFETCHES SAME FILL-ORIGIN LEVEL: 0 DIFFERENT FILL-ORIGIN LEVEL: 0
DTLB AVERAGE MISS LATENCY: 22.7806 cycles
DTLB AVERAGE MISS LATENCY LOAD: -nan cycles
DTLB AVERAGE MISS LATENCY PREFETCH: -nan cycles
DTLB AVERAGE MSHR OCCUPANCY: 0.0234867
DTLB MSHR FULL: 0.000993498
DTLB RQ	ACCESS:   58606163	FORWARD:          0	MERGED:    7602123	TO_CACHE:   51004040

STLB SPEC fills:          0  NON-SPEC fills:          0
STLB Test counter :          0
STLB Leapfrog:          0
STLB MSHR merge:          0
STLB TOTAL     ACCESS:   12652219  HIT:   12624263  MISS:      27956  HIT %:     99.779  MISS %:   0.220957   MPKI: 0.13978
STLB LOAD TRANSLATION NON_SPEC    ACCESS:     200665  HIT:     189008  MISS:      11657  HIT %:    94.1908  MISS %:    5.80918   MPKI: 0.058285
STLB TRANSLATION FROM L1D PREFETCHER NON_SPEC    ACCESS:   12451554  HIT:   12435255  MISS:      16299  HIT %:    99.8691  MISS %:   0.130899   MPKI: 0.081495
STLB PREFETCH  REQUESTED:          0  ISSUED:          0  USEFUL:      16236  USELESS:         64
STLB USEFUL LOAD PREFETCHES:      16236 PREFETCH ISSUED TO LOWER LEVEL:          0  ACCURACY: inf
STLB TIMELY PREFETCHES:      16236 LATE PREFETCHES: 2106 DROPPED PREFETCHES: 61565
STLB COMMIT LATE PREFETCHES: 0 NORMAL LATE: 2106 MISSED OPPORTUNITY: 0 UNCOVERED: 18446744073709549510
STLB PREFETCHES SAME FILL-ORIGIN LEVEL: 0 DIFFERENT FILL-ORIGIN LEVEL: 0
STLB AVERAGE MISS LATENCY: 186.738 cycles
STLB AVERAGE MISS LATENCY LOAD: -nan cycles
STLB AVERAGE MISS LATENCY PREFETCH: -nan cycles
STLB AVERAGE MSHR OCCUPANCY: 0.038659
STLB MSHR FULL: 0.000106873
STLB RQ	ACCESS:   60316021	FORWARD:          0	MERGED:   47591955	TO_CACHE:   12724066

STLB Hit, L1D data hit: 0
STLB Hit, L2C data hit: 0
STLB Hit, LLC data hit: 0
STLB Hit, LLC data miss: 0
STLB STLB hints to L2: 0
L0D SPEC fills:   32716249  NON-SPEC fills:          0
L0D TimeGuard Request with older TS:     625553 Restricted eviction:     547762 read:    1245554
L0D Test counter :          0
L0D Leapfrog:          0
L0D MSHR merge:    2094466
L0D TOTAL     ACCESS:   45656403  HIT:    6586826  MISS:   39069577  HIT %:    14.4269  MISS %:    85.5731   MPKI: 195.348
L0D LOAD      TOTAL       ACCESS:   45656403  HIT:    6586826  MISS:   39069577  HIT %:    14.4269  MISS %:    85.5731   MPKI: 195.348
L0D LOAD      NON_SPEC    ACCESS:    6748772  HIT:     942865  MISS:    5805907  HIT %:    13.9709  MISS %:    86.0291   MPKI: 29.0295
L0D LOAD      SPEC        ACCESS:   38907631  HIT:    5643961  MISS:   33263670  HIT %:    14.5061  MISS %:    85.4939   MPKI: 166.318
L0D PREFETCH  REQUESTED:          0  ISSUED:          0  USEFUL:          0  USELESS:          0
L0D USEFUL LOAD PREFETCHES:          0 PREFETCH ISSUED TO LOWER LEVEL:          0  ACCURACY: -nan
L0D TIMELY PREFETCHES:          0 LATE PREFETCHES: 0 DROPPED PREFETCHES: 0
L0D COMMIT LATE PREFETCHES: 0 NORMAL LATE: 0 MISSED OPPORTUNITY: 0 UNCOVERED: 39069577
L0D PREFETCHES SAME FILL-ORIGIN LEVEL: 0 DIFFERENT FILL-ORIGIN LEVEL: 0
L0D AVERAGE MISS LATENCY: 8.41009 cycles
L0D AVERAGE MISS LATENCY LOAD: 8.41009 cycles
L0D AVERAGE MISS LATENCY PREFETCH: -nan cycles
L0D AVERAGE MSHR OCCUPANCY: 1.96249
L0D MSHR FULL: 0.0714917
L0D RQ	ACCESS:   58946317	FORWARD:          0	MERGED:   11195449	TO_CACHE:   47750868
L0D WQ	ACCESS:   10855295	FORWARD:          0	MERGED:          0	TO_CACHE:   10855295

L1D SPEC fills:          0  NON-SPEC fills:      25186
L1D Test counter :          0
L1D Leapfrog:          0
L1D MSHR merge:     147248
L1D TOTAL     ACCESS:  141813000  HIT:  137436879  MISS:    4376121  HIT %:    96.9142  MISS %:    3.08584   MPKI: 21.8806
L1D LOAD      TOTAL       ACCESS:   39059924  HIT:   38249242  MISS:     810682  HIT %:    97.9245  MISS %:    2.07548   MPKI: 4.05341
L1D LOAD      NON_SPEC    ACCESS:    5805532  HIT:    5780346  MISS:      25186  HIT %:    99.5662  MISS %:   0.433828   MPKI: 0.12593
L1D LOAD      SPEC        ACCESS:   33254392  HIT:   32468896  MISS:     785496  HIT %:    97.6379  MISS %:    2.36208   MPKI: 3.92748
L1D RFO       NON_SPEC    ACCESS:    8017417  HIT:    7498657  MISS:     518760  HIT %:    93.5296  MISS %:    6.47041   MPKI: 2.5938
L1D PREFETCH  NON_SPEC    ACCESS:   49358457  HIT:   47069955  MISS:    2288502  HIT %:    95.3635  MISS %:    4.63649   MPKI: 11.4425
L1D COMMIT LOAD NON_SPEC    ACCESS:   13291053  HIT:   13227675  MISS:      63378  HIT %:    99.5232  MISS %:   0.476847   MPKI: 0.31689
L1D COMMIT WRITE NON_SPEC    ACCESS:   32086149  HIT:   31391350  MISS:     694799  HIT %:    97.8346  MISS %:    2.16542   MPKI: 3.47399
L1D PREFETCH  REQUESTED:  119007536  ISSUED:   63950358  USEFUL:    2127919  USELESS:     160583
L1D USEFUL LOAD PREFETCHES:    2127919 PREFETCH ISSUED TO LOWER LEVEL:   11523609  ACCURACY: 18.4657
L1D TIMELY PREFETCHES:    2127919 LATE PREFETCHES: 137789 DROPPED PREFETCHES: 137737
L1D COMMIT LATE PREFETCHES: 0 NORMAL LATE: 137789 MISSED OPPORTUNITY: 0 UNCOVERED: 672893
L1D PREFETCHES SAME FILL-ORIGIN LEVEL: 2457184 DIFFERENT FILL-ORIGIN LEVEL: 9066425
L1D AVERAGE MISS LATENCY: 139.745 cycles
L1D AVERAGE MISS LATENCY LOAD: 142.664 cycles
L1D AVERAGE MISS LATENCY PREFETCH: 139.098 cycles
L1D AVERAGE MSHR OCCUPANCY: 2.13071
L1D MSHR FULL: 0.0299991
L1D RQ	ACCESS:   58580567	FORWARD:          0	MERGED:    6015505	TO_CACHE:   52380958
L1D WQ	ACCESS:   42125653	FORWARD:     184104	MERGED:     528890	TO_CACHE:   41596763
L1D PQ	ACCESS:   63950358	FORWARD:          0	MERGED:    3835002	TO_CACHE:   60115356

L1D UNIQUE REGIONS ACCESSED: 0
L1D REGIONS CONFLICTS: 0
L1D Cross Page Prefetch Requests: 11232795
L1D Same Page Prefetch Requests: 68064631
L1D ROI Sum of L1D PQ occupancy: 1074208877
L1D PREFETCHES PUSHED FROM L2C: 0
L1I SPEC fills:          0  NON-SPEC fills:          0
L1I Test counter :          0
L1I Leapfrog:          0
L1I MSHR merge:       2979
L1I TOTAL     ACCESS:   35177042  HIT:   35170879  MISS:       6163  HIT %:    99.9825  MISS %:  0.0175199   MPKI: 0.030815
L1I LOAD      TOTAL       ACCESS:   35177042  HIT:   35170879  MISS:       6163  HIT %:    99.9825  MISS %:  0.0175199   MPKI: 0.030815
L1I LOAD      NON_SPEC    ACCESS:   35177042  HIT:   35170879  MISS:       6163  HIT %:    99.9825  MISS %:  0.0175199   MPKI: 0.030815
L1I PREFETCH  REQUESTED:          0  ISSUED:          0  USEFUL:          0  USELESS:          0
L1I USEFUL LOAD PREFETCHES:          0 PREFETCH ISSUED TO LOWER LEVEL:          0  ACCURACY: -nan
L1I TIMELY PREFETCHES:          0 LATE PREFETCHES: 0 DROPPED PREFETCHES: 0
L1I COMMIT LATE PREFETCHES: 0 NORMAL LATE: 0 MISSED OPPORTUNITY: 0 UNCOVERED: 6163
L1I PREFETCHES SAME FILL-ORIGIN LEVEL: 0 DIFFERENT FILL-ORIGIN LEVEL: 0
L1I AVERAGE MISS LATENCY: 244.574 cycles
L1I AVERAGE MISS LATENCY LOAD: 244.574 cycles
L1I AVERAGE MISS LATENCY PREFETCH: -nan cycles
L1I AVERAGE MSHR OCCUPANCY: 0.00023033
L1I MSHR FULL: 0
L1I RQ	ACCESS:   51989225	FORWARD:          0	MERGED:   16809203	TO_CACHE:   35180022

BTB SPEC fills:          0  NON-SPEC fills:          0
BTB Test counter :          0
BTB Leapfrog:          0
BTB MSHR merge:          0
BTB TOTAL     ACCESS:    9141033  HIT:    9133636  MISS:       7397  HIT %:    99.9191  MISS %:  0.0809208   MPKI: 0.036985
BTB BRANCH_DIRECT_JUMP	ACCESS:     290387  HIT:     290283  MISS:        104
BTB BRANCH_INDIRECT	ACCESS:         12  HIT:          8  MISS:          4
BTB BRANCH_CONDITIONAL	ACCESS:    8250533  HIT:    8249658  MISS:        875
BTB BRANCH_DIRECT_CALL	ACCESS:     300051  HIT:     299561  MISS:        490
BTB BRANCH_INDIRECT_CALL	ACCESS:          0  HIT:          0  MISS:          0
BTB BRANCH_RETURN	ACCESS:     300050  HIT:     294126  MISS:       5924
BTB BRANCH_OTHER ACCESS:          0  HIT:          0  MISS:          0

L2C SPEC fills:          0  NON-SPEC fills:       5268
L2C Test counter :          0
L2C Leapfrog:          0
L2C MSHR merge:      64910
L2C TOTAL     ACCESS:   14684880  HIT:   11797570  MISS:    2887310  HIT %:    80.3382  MISS %:    19.6618   MPKI: 14.4365
L2C LOAD      TOTAL       ACCESS:     679217  HIT:     439707  MISS:     239510  HIT %:    64.7373  MISS %:    35.2627   MPKI: 1.19755
L2C LOAD      NON_SPEC    ACCESS:      28751  HIT:      17320  MISS:      11431  HIT %:    60.2414  MISS %:    39.7586   MPKI: 0.057155
L2C LOAD      SPEC        ACCESS:     650466  HIT:     422387  MISS:     228079  HIT %:    64.9361  MISS %:    35.0639   MPKI: 1.14039
L2C RFO       NON_SPEC    ACCESS:     518513  HIT:     151019  MISS:     367494  HIT %:    29.1254  MISS %:    70.8746   MPKI: 1.83747
L2C PREFETCH  NON_SPEC    ACCESS:    9636576  HIT:    7586207  MISS:    2050369  HIT %:    78.7231  MISS %:    21.2769   MPKI: 10.2518
L2C WRITEBACK NON_SPEC    ACCESS:     616819  HIT:     615076  MISS:       1743  HIT %:    99.7174  MISS %:   0.282579   MPKI: 0.008715
L2C CLEAN_EVICTION NON_SPEC    ACCESS:    2717304  HIT:    2503730  MISS:     213574  HIT %:    92.1402  MISS %:    7.85978   MPKI: 1.06787
L2C COMMIT LOAD NON_SPEC    ACCESS:      63175  HIT:      53928  MISS:       9247  HIT %:    85.3629  MISS %:    14.6371   MPKI: 0.046235
L2C LOAD TRANSLATION NON_SPEC    ACCESS:      53471  HIT:      51267  MISS:       2204  HIT %:    95.8781  MISS %:    4.12186   MPKI: 0.01102
L2C TRANSLATION FROM L1D PREFETCHER NON_SPEC    ACCESS:     399805  HIT:     396636  MISS:       3169  HIT %:    99.2074  MISS %:   0.792636   MPKI: 0.015845
L2C PREFETCH  REQUESTED:          0  ISSUED:          0  USEFUL:     309960  USELESS:    1739473
L2C USEFUL LOAD PREFETCHES:     309960 PREFETCH ISSUED TO LOWER LEVEL:    2116608  ACCURACY: 14.6442
L2C TIMELY PREFETCHES:     309960 LATE PREFETCHES: 66238 DROPPED PREFETCHES: 0
L2C COMMIT LATE PREFETCHES: 0 NORMAL LATE: 66238 MISSED OPPORTUNITY: 0 UNCOVERED: 173272
L2C PREFETCHES SAME FILL-ORIGIN LEVEL: 1212798 DIFFERENT FILL-ORIGIN LEVEL: 0
L2C AVERAGE MISS LATENCY: 341.831 cycles
L2C AVERAGE MISS LATENCY LOAD: 287.841 cycles
L2C AVERAGE MISS LATENCY PREFETCH: 364.489 cycles
L2C AVERAGE MSHR OCCUPANCY: 9.87717
L2C MSHR FULL: 0.13524
L2C RQ	ACCESS:    1714263	FORWARD:          0	MERGED:          0	TO_CACHE:    1714181
L2C WQ	ACCESS:    3334151	FORWARD:        195	MERGED:         28	TO_CACHE:    3334123
L2C PQ	ACCESS:   10974197	FORWARD:          0	MERGED:      13045	TO_CACHE:   10961039

L2C Instructions Evicting Data 6146
L2C Translations Evicting Data 5360
L2C Data Evicting Data 2421838
L2C Instructions Evicting Instructions 9
L2C Translations Evicting Instructions 11
L2C Data Evicting Instructions 5675
L2C Instructions Evicting Translations 8
L2C Translations Evicting Translations 2
L2C Data Evicting Translations 4865
L2C Dense regions hint from L2: 0
PSCL5 SPEC fills:          0  NON-SPEC fills:          0
PSCL5 Test counter :          0
PSCL5 Leapfrog:          0
PSCL5 MSHR merge:          0
PSCL5 TOTAL     ACCESS:          0  HIT:          0  MISS:          0  HIT %:       -nan  MISS %:       -nan   MPKI: 0
PSCL5 PREFETCH  REQUESTED:          0  ISSUED:          0  USEFUL:          0  USELESS:          0
PSCL5 USEFUL LOAD PREFETCHES:          0 PREFETCH ISSUED TO LOWER LEVEL:          0  ACCURACY: -nan
PSCL5 TIMELY PREFETCHES:          0 LATE PREFETCHES: 0 DROPPED PREFETCHES: 0
PSCL5 COMMIT LATE PREFETCHES: 0 NORMAL LATE: 0 MISSED OPPORTUNITY: 0 UNCOVERED: 0
PSCL5 PREFETCHES SAME FILL-ORIGIN LEVEL: 0 DIFFERENT FILL-ORIGIN LEVEL: 0

PSCL4 SPEC fills:          0  NON-SPEC fills:          0
PSCL4 Test counter :          0
PSCL4 Leapfrog:          0
PSCL4 MSHR merge:          0
PSCL4 TOTAL     ACCESS:          0  HIT:          0  MISS:          0  HIT %:       -nan  MISS %:       -nan   MPKI: 0
PSCL4 PREFETCH  REQUESTED:          0  ISSUED:          0  USEFUL:          0  USELESS:          0
PSCL4 USEFUL LOAD PREFETCHES:          0 PREFETCH ISSUED TO LOWER LEVEL:          0  ACCURACY: -nan
PSCL4 TIMELY PREFETCHES:          0 LATE PREFETCHES: 0 DROPPED PREFETCHES: 0
PSCL4 COMMIT LATE PREFETCHES: 0 NORMAL LATE: 0 MISSED OPPORTUNITY: 0 UNCOVERED: 0
PSCL4 PREFETCHES SAME FILL-ORIGIN LEVEL: 0 DIFFERENT FILL-ORIGIN LEVEL: 0

PSCL3 SPEC fills:          0  NON-SPEC fills:          0
PSCL3 Test counter :          0
PSCL3 Leapfrog:          0
PSCL3 MSHR merge:          0
PSCL3 TOTAL     ACCESS:          0  HIT:          0  MISS:          0  HIT %:       -nan  MISS %:       -nan   MPKI: 0
PSCL3 PREFETCH  REQUESTED:          0  ISSUED:          0  USEFUL:          0  USELESS:          0
PSCL3 USEFUL LOAD PREFETCHES:          0 PREFETCH ISSUED TO LOWER LEVEL:          0  ACCURACY: -nan
PSCL3 TIMELY PREFETCHES:          0 LATE PREFETCHES: 0 DROPPED PREFETCHES: 0
PSCL3 COMMIT LATE PREFETCHES: 0 NORMAL LATE: 0 MISSED OPPORTUNITY: 0 UNCOVERED: 0
PSCL3 PREFETCHES SAME FILL-ORIGIN LEVEL: 0 DIFFERENT FILL-ORIGIN LEVEL: 0

PSCL2 SPEC fills:          0  NON-SPEC fills:          0
PSCL2 Test counter :          0
PSCL2 Leapfrog:          0
PSCL2 MSHR merge:          0
PSCL2 TOTAL     ACCESS:          0  HIT:          0  MISS:          0  HIT %:       -nan  MISS %:       -nan   MPKI: 0
PSCL2 PREFETCH  REQUESTED:          0  ISSUED:          0  USEFUL:          0  USELESS:          0
PSCL2 USEFUL LOAD PREFETCHES:          0 PREFETCH ISSUED TO LOWER LEVEL:          0  ACCURACY: -nan
PSCL2 TIMELY PREFETCHES:          0 LATE PREFETCHES: 0 DROPPED PREFETCHES: 0
PSCL2 COMMIT LATE PREFETCHES: 0 NORMAL LATE: 0 MISSED OPPORTUNITY: 0 UNCOVERED: 0
PSCL2 PREFETCHES SAME FILL-ORIGIN LEVEL: 0 DIFFERENT FILL-ORIGIN LEVEL: 0

LLC SPEC fills:          0  NON-SPEC fills:       4023
LLC Test counter :          0
LLC Leapfrog:          0
LLC MSHR merge:          0
LLC TOTAL     ACCESS:    5148023  HIT:    2764072  MISS:    2383951  HIT %:    53.6919  MISS %:    46.3081   MPKI: 11.9198
LLC LOAD      TOTAL       ACCESS:     174600  HIT:       6840  MISS:     167760  HIT %:    3.91753  MISS %:    96.0825   MPKI: 0.8388
LLC LOAD      NON_SPEC    ACCESS:      10701  HIT:        515  MISS:      10186  HIT %:    4.81263  MISS %:    95.1874   MPKI: 0.05093
LLC LOAD      SPEC        ACCESS:     163899  HIT:       6325  MISS:     157574  HIT %:    3.85908  MISS %:    96.1409   MPKI: 0.78787
LLC RFO       NON_SPEC    ACCESS:     366221  HIT:      14801  MISS:     351420  HIT %:    4.04155  MISS %:    95.9585   MPKI: 1.7571
LLC PREFETCH  NON_SPEC    ACCESS:    2116601  HIT:     416855  MISS:    1699746  HIT %:    19.6945  MISS %:    80.3055   MPKI: 8.49873
LLC WRITEBACK NON_SPEC    ACCESS:     458328  HIT:     455475  MISS:       2853  HIT %:    99.3775  MISS %:    0.62248   MPKI: 0.014265
LLC CLEAN_EVICTION NON_SPEC    ACCESS:    2017708  HIT:    1865161  MISS:     152547  HIT %:    92.4396  MISS %:    7.56041   MPKI: 0.762735
LLC COMMIT LOAD NON_SPEC    ACCESS:       9192  HIT:       4537  MISS:       4655  HIT %:    49.3581  MISS %:    50.6419   MPKI: 0.023275
LLC LOAD TRANSLATION NON_SPEC    ACCESS:       2204  HIT:        233  MISS:       1971  HIT %:    10.5717  MISS %:    89.4283   MPKI: 0.009855
LLC TRANSLATION FROM L1D PREFETCHER NON_SPEC    ACCESS:       3169  HIT:        170  MISS:       2999  HIT %:    5.36447  MISS %:    94.6355   MPKI: 0.014995
LLC PREFETCH  REQUESTED:          0  ISSUED:          0  USEFUL:       8477  USELESS:    1690152
LLC USEFUL LOAD PREFETCHES:       8477 PREFETCH ISSUED TO LOWER LEVEL:    1699747  ACCURACY: 0.498721
LLC TIMELY PREFETCHES:       8477 LATE PREFETCHES: 0 DROPPED PREFETCHES: 0
LLC COMMIT LATE PREFETCHES: 0 NORMAL LATE: 0 MISSED OPPORTUNITY: 0 UNCOVERED: 167760
LLC PREFETCHES SAME FILL-ORIGIN LEVEL: 0 DIFFERENT FILL-ORIGIN LEVEL: 0
LLC AVERAGE MISS LATENCY: 387.739 cycles
LLC AVERAGE MISS LATENCY LOAD: 255.506 cycles
LLC AVERAGE MISS LATENCY PREFETCH: 425.26 cycles
LLC AVERAGE MSHR OCCUPANCY: 6.41614
LLC MSHR FULL: 0
LLC RQ	ACCESS:     555386	FORWARD:          0	MERGED:          0	TO_CACHE:     555386
LLC WQ	ACCESS:    2476036	FORWARD:          6	MERGED:          0	TO_CACHE:    2476036
LLC PQ	ACCESS:    2116608	FORWARD:          0	MERGED:          0	TO_CACHE:    2116602

LLC Dense regions hint to LLC: 0

RAW hits: 168950
Loads Generated: 59115273
Loads sent to L1D: 58946317
Stores Generated: 10855289
Stores sent to L1D: 10855295
Major fault: 0 Minor fault: 10671
Allocated PAGES: 10671
Total Load insts: 73541836
Total Non-spec loads: 7937482
Percentage of speculative loads: 89.2068

LeapFrogging counter: 1321078
Commit hits: 32149229 miss: 19510991
Commit hit %: 62.2321 miss %: 37.7679
Commits not translated: 0
Loads retired: 810682
Stores retired: 10855295
Cache fills: 810682
L1D response latency: 142.664 cycles
Load retirement latency: 363.435 cycles
OOO test counter: 0
Discarded buffer inserts: 32149229 hits: 18255 hit %: 0.0567821
Filter prediction accuracy: -nan
LATENCY_FILL: 139.156 818267

DRAM Statistics
 CHANNEL 0
 RQ ROW_BUFFER_HIT:     382376  ROW_BUFFER_MISS:    1846037
 DBUS_CONGESTED:        706
 WQ ROW_BUFFER_HIT:     510376  ROW_BUFFER_MISS:    1561181  FULL:      17193

 AVG_CONGESTED_CYCLE: 6
 All warmup complete: 2
Channel 0 Bank busy for read cycles: 0
Channel 0 Bank busy for write cycles: 0
Channel 0
Rank 0
0banks busy for read cycles: 81990944
0banks busy for write cycles: 108876
1banks busy for read cycles: 36031774
1banks busy for write cycles: 14438760
2banks busy for read cycles: 16938489
2banks busy for write cycles: 5877640
3banks busy for read cycles: 9237847
3banks busy for write cycles: 2628799
4banks busy for read cycles: 6941327
4banks busy for write cycles: 1752300
5banks busy for read cycles: 5669211
5banks busy for write cycles: 1454168
6banks busy for read cycles: 5595697
6banks busy for write cycles: 1550573
7banks busy for read cycles: 6413896
7banks busy for write cycles: 4140416
8banks busy for read cycles: 10984726
8banks busy for write cycles: 35607770

CPU 0 Branch Prediction Accuracy: 99.8685% MPKI: 0.079065 Average ROB Occupancy at Mispredict: 116.598
Branch types
NOT_BRANCH: 187976336 93.9882%
BRANCH_DIRECT_JUMP: 290387 0.145193%
BRANCH_INDIRECT: 12 6e-06%
BRANCH_CONDITIONAL: 11132876 5.56644%
BRANCH_DIRECT_CALL: 300051 0.150025%
BRANCH_INDIRECT_CALL: 0 0%
BRANCH_RETURN: 300050 0.150025%
BRANCH_OTHER: 0 0%

DRAM PAGES: 1048576
Allocated PAGES: 10671
