
*** ChampSim Multicore Out-of-Order Simulator ***

Warmup Instructions: 50000000
Simulation Instructions: 200000000
Number of CPUs: 1
LLC sets: 2048
LLC ways: 16
L0D sets: 16
L0D ways: 2
ROB size: 352
LQ size: 128
SQ size: 72
Secure Berti: OFF
Berti: OFF
Berti Fill: OFF
On commit prefetching: OFF
Hit-based filter: OFF
Time-guarding: ON
Free-slotting: ON
Leap-frogging: ON
Train prefetcher on L0D bypass: OFF
No translation penalty for prefetchers: OFF
Prefetch to L0D only: OFF
Prefetch to L1D only: OFF
Clean evictions: ON
Commit loads: ON
Commit write: ON
Fill commit loads to L2C, LLC: ON
DRAM IO FREQUENCY: 6400
ROB SIZE: 352
Off-chip DRAM Size: 4096 MB Channels: 1 Width: 64-bit Data Rate: 6400 MT/s
CPU 0 runs /home/sumon/secure_berti/GhostMinion/../../traces/spec/623.xalancbmk_s-165B.champsimtrace.xz
.xz
BTB has LRU replacement policy
ITLB has LRU replacement policy
DTLB has LRU replacement policy
STLB has LRU replacement policy
L1I has LRU replacement policy
L0D has LRU replacement policy
History Sets: 8
History Ways: 16
BERTI Size: 16
BERTI Stride Size: 16
L1D has LRU replacement policy
L2C has LRU replacement policy
LLC has LRU replacement policy
Heartbeat CPU 0 instructions: 10000000 cycles: 3432498 heartbeat IPC: 2.91333 cumulative IPC: 2.91333 (Simulation time: 0 hr 0 min 35 sec) 
Heartbeat CPU 0 instructions: 20000001 cycles: 6856760 heartbeat IPC: 2.92034 cumulative IPC: 2.91683 (Simulation time: 0 hr 1 min 9 sec) 
Heartbeat CPU 0 instructions: 30000000 cycles: 10257692 heartbeat IPC: 2.94037 cumulative IPC: 2.92463 (Simulation time: 0 hr 1 min 44 sec) 
Heartbeat CPU 0 instructions: 40000003 cycles: 13671474 heartbeat IPC: 2.9293 cumulative IPC: 2.9258 (Simulation time: 0 hr 2 min 18 sec) 
Heartbeat CPU 0 instructions: 50000001 cycles: 17103315 heartbeat IPC: 2.91389 cumulative IPC: 2.92341 (Simulation time: 0 hr 2 min 53 sec) 

Warmup complete CPU 0 instructions: 50000001 cycles: 17103315 (Simulation time: 0 hr 2 min 53 sec) 

Heartbeat CPU 0 instructions: 60000003 cycles: 28562288 heartbeat IPC: 0.872679 cumulative IPC: 0.872679 (Simulation time: 0 hr 3 min 39 sec) 
Heartbeat CPU 0 instructions: 70000001 cycles: 40026100 heartbeat IPC: 0.87231 cumulative IPC: 0.872494 (Simulation time: 0 hr 4 min 27 sec) 
Heartbeat CPU 0 instructions: 80000001 cycles: 51481533 heartbeat IPC: 0.872948 cumulative IPC: 0.872646 (Simulation time: 0 hr 5 min 16 sec) 
Heartbeat CPU 0 instructions: 90000000 cycles: 62943744 heartbeat IPC: 0.872432 cumulative IPC: 0.872592 (Simulation time: 0 hr 6 min 5 sec) 
Heartbeat CPU 0 instructions: 100000001 cycles: 74402194 heartbeat IPC: 0.872718 cumulative IPC: 0.872617 (Simulation time: 0 hr 6 min 54 sec) 
Heartbeat CPU 0 instructions: 110000000 cycles: 85869780 heartbeat IPC: 0.872023 cumulative IPC: 0.872518 (Simulation time: 0 hr 7 min 44 sec) 
Heartbeat CPU 0 instructions: 120000000 cycles: 97325821 heartbeat IPC: 0.872902 cumulative IPC: 0.872573 (Simulation time: 0 hr 8 min 34 sec) 
Heartbeat CPU 0 instructions: 130000002 cycles: 108782086 heartbeat IPC: 0.872885 cumulative IPC: 0.872612 (Simulation time: 0 hr 9 min 24 sec) 
Heartbeat CPU 0 instructions: 140000002 cycles: 120244916 heartbeat IPC: 0.872385 cumulative IPC: 0.872587 (Simulation time: 0 hr 10 min 15 sec) 
Heartbeat CPU 0 instructions: 150000002 cycles: 131699528 heartbeat IPC: 0.873011 cumulative IPC: 0.872629 (Simulation time: 0 hr 11 min 5 sec) 
Heartbeat CPU 0 instructions: 160000000 cycles: 143161427 heartbeat IPC: 0.872456 cumulative IPC: 0.872613 (Simulation time: 0 hr 11 min 56 sec) 
Heartbeat CPU 0 instructions: 170000002 cycles: 154619125 heartbeat IPC: 0.872776 cumulative IPC: 0.872627 (Simulation time: 0 hr 12 min 47 sec) 
Heartbeat CPU 0 instructions: 180000000 cycles: 166078358 heartbeat IPC: 0.872659 cumulative IPC: 0.872629 (Simulation time: 0 hr 13 min 39 sec) 
Heartbeat CPU 0 instructions: 190000002 cycles: 177537716 heartbeat IPC: 0.872649 cumulative IPC: 0.872631 (Simulation time: 0 hr 14 min 28 sec) 
Heartbeat CPU 0 instructions: 200000002 cycles: 188994666 heartbeat IPC: 0.872833 cumulative IPC: 0.872644 (Simulation time: 0 hr 15 min 10 sec) 
Heartbeat CPU 0 instructions: 210000003 cycles: 200456546 heartbeat IPC: 0.872457 cumulative IPC: 0.872633 (Simulation time: 0 hr 15 min 50 sec) 
Heartbeat CPU 0 instructions: 220000000 cycles: 212164206 heartbeat IPC: 0.854141 cumulative IPC: 0.871523 (Simulation time: 0 hr 16 min 29 sec) 
Heartbeat CPU 0 instructions: 230000001 cycles: 223452878 heartbeat IPC: 0.885844 cumulative IPC: 0.872306 (Simulation time: 0 hr 17 min 6 sec) 
Heartbeat CPU 0 instructions: 240000002 cycles: 234539735 heartbeat IPC: 0.901969 cumulative IPC: 0.873819 (Simulation time: 0 hr 17 min 43 sec) 
Heartbeat CPU 0 instructions: 250000002 cycles: 245562232 heartbeat IPC: 0.907235 cumulative IPC: 0.875431 (Simulation time: 0 hr 18 min 19 sec) 
Finished CPU 0 instructions: 200000001 cycles: 228458917 cumulative IPC: 0.875431 (Simulation time: 0 hr 18 min 19 sec) 
 Instruction ID: 250000052

ChampSim completed all CPUs

Region of Interest Statistics

CPU 0 cumulative IPC: 0.875431 instructions: 200000001 cycles: 228458917
ITLB SPEC fills:          0  NON-SPEC fills:          0
ITLB Test counter :          0
ITLB Leapfrog:          0
ITLB MSHR merge:          0
ITLB TOTAL     ACCESS:   28387658  HIT:   28387647  MISS:         11  HIT %:        100  MISS %: 3.87492e-05   MPKI: 5.5e-05
ITLB LOAD TRANSLATION NON_SPEC    ACCESS:   28387658  HIT:   28387647  MISS:         11  HIT %:        100  MISS %: 3.87492e-05   MPKI: 5.5e-05
ITLB PREFETCH  REQUESTED:          0  ISSUED:          0  USEFUL:          0  USELESS:          0
ITLB USEFUL LOAD PREFETCHES:          0 PREFETCH ISSUED TO LOWER LEVEL:          0  ACCURACY: -nan
ITLB TIMELY PREFETCHES:          0 LATE PREFETCHES: 0 DROPPED PREFETCHES: 0
ITLB COMMIT LATE PREFETCHES: 0 NORMAL LATE: 0 MISSED OPPORTUNITY: 0 UNCOVERED: 0
ITLB PREFETCHES SAME FILL-ORIGIN LEVEL: 0 DIFFERENT FILL-ORIGIN LEVEL: 0
ITLB AVERAGE MISS LATENCY: 344.818 cycles
ITLB AVERAGE MISS LATENCY LOAD: -nan cycles
ITLB AVERAGE MISS LATENCY PREFETCH: -nan cycles
ITLB AVERAGE MSHR OCCUPANCY: 0
ITLB MSHR FULL: 0
ITLB RQ	ACCESS:   37106793	FORWARD:          0	MERGED:    8719136	TO_CACHE:   28387657

DTLB SPEC fills:          0  NON-SPEC fills:          0
DTLB Test counter :          0
DTLB Leapfrog:          0
DTLB MSHR merge:          0
DTLB TOTAL     ACCESS:   42642501  HIT:   42576810  MISS:      65691  HIT %:    99.8459  MISS %:   0.154051   MPKI: 0.328455
DTLB LOAD TRANSLATION NON_SPEC    ACCESS:   42642501  HIT:   42576810  MISS:      65691  HIT %:    99.8459  MISS %:   0.154051   MPKI: 0.328455
DTLB PREFETCH  REQUESTED:          0  ISSUED:          0  USEFUL:          0  USELESS:          0
DTLB USEFUL LOAD PREFETCHES:          0 PREFETCH ISSUED TO LOWER LEVEL:          0  ACCURACY: -nan
DTLB TIMELY PREFETCHES:          0 LATE PREFETCHES: 0 DROPPED PREFETCHES: 0
DTLB COMMIT LATE PREFETCHES: 0 NORMAL LATE: 0 MISSED OPPORTUNITY: 0 UNCOVERED: 0
DTLB PREFETCHES SAME FILL-ORIGIN LEVEL: 0 DIFFERENT FILL-ORIGIN LEVEL: 0
DTLB AVERAGE MISS LATENCY: 12.1962 cycles
DTLB AVERAGE MISS LATENCY LOAD: -nan cycles
DTLB AVERAGE MISS LATENCY PREFETCH: -nan cycles
DTLB AVERAGE MSHR OCCUPANCY: 0.000653475
DTLB MSHR FULL: 0
DTLB RQ	ACCESS:   45883424	FORWARD:          0	MERGED:    3240647	TO_CACHE:   42642777

STLB SPEC fills:          0  NON-SPEC fills:          0
STLB Test counter :          0
STLB Leapfrog:          0
STLB MSHR merge:          0
STLB TOTAL     ACCESS:    8281695  HIT:    8280948  MISS:        747  HIT %:     99.991  MISS %: 0.00901989   MPKI: 0.003735
STLB LOAD TRANSLATION NON_SPEC    ACCESS:      65702  HIT:      64955  MISS:        747  HIT %:     98.863  MISS %:    1.13695   MPKI: 0.003735
STLB TRANSLATION FROM L1D PREFETCHER NON_SPEC    ACCESS:    8215993  HIT:    8215993  MISS:          0  HIT %:        100  MISS %:          0   MPKI: 0
STLB PREFETCH  REQUESTED:          0  ISSUED:          0  USEFUL:          0  USELESS:          0
STLB USEFUL LOAD PREFETCHES:          0 PREFETCH ISSUED TO LOWER LEVEL:          0  ACCURACY: -nan
STLB TIMELY PREFETCHES:          0 LATE PREFETCHES: 26 DROPPED PREFETCHES: 10421
STLB COMMIT LATE PREFETCHES: 0 NORMAL LATE: 26 MISSED OPPORTUNITY: 0 UNCOVERED: 18446744073709551590
STLB PREFETCHES SAME FILL-ORIGIN LEVEL: 0 DIFFERENT FILL-ORIGIN LEVEL: 0
STLB AVERAGE MISS LATENCY: 327.008 cycles
STLB AVERAGE MISS LATENCY LOAD: -nan cycles
STLB AVERAGE MISS LATENCY PREFETCH: -nan cycles
STLB AVERAGE MSHR OCCUPANCY: 0.00335155
STLB MSHR FULL: 0
STLB RQ	ACCESS:   31062469	FORWARD:          0	MERGED:   22766606	TO_CACHE:    8295863

STLB Hit, L1D data hit: 0
STLB Hit, L2C data hit: 0
STLB Hit, LLC data hit: 0
STLB Hit, LLC data miss: 0
STLB STLB hints to L2: 0
L0D SPEC fills:   30529686  NON-SPEC fills:          0
L0D TimeGuard Request with older TS:     113589 Restricted eviction:      26260 read:       2527
L0D Test counter :          0
L0D Leapfrog:          0
L0D MSHR merge:    1370903
L0D TOTAL     ACCESS:   41545427  HIT:    4939093  MISS:   36606334  HIT %:    11.8884  MISS %:    88.1116   MPKI: 183.032
L0D LOAD      TOTAL       ACCESS:   41545427  HIT:    4939093  MISS:   36606334  HIT %:    11.8884  MISS %:    88.1116   MPKI: 183.032
L0D LOAD      NON_SPEC    ACCESS:    6219925  HIT:     169537  MISS:    6050388  HIT %:    2.72571  MISS %:    97.2743   MPKI: 30.2519
L0D LOAD      SPEC        ACCESS:   35325502  HIT:    4769556  MISS:   30555946  HIT %:    13.5017  MISS %:    86.4983   MPKI: 152.78
L0D PREFETCH  REQUESTED:          0  ISSUED:          0  USEFUL:          0  USELESS:          0
L0D USEFUL LOAD PREFETCHES:          0 PREFETCH ISSUED TO LOWER LEVEL:          0  ACCURACY: -nan
L0D TIMELY PREFETCHES:          0 LATE PREFETCHES: 0 DROPPED PREFETCHES: 0
L0D COMMIT LATE PREFETCHES: 0 NORMAL LATE: 0 MISSED OPPORTUNITY: 0 UNCOVERED: 36606334
L0D PREFETCHES SAME FILL-ORIGIN LEVEL: 0 DIFFERENT FILL-ORIGIN LEVEL: 0
L0D AVERAGE MISS LATENCY: 5.39982 cycles
L0D AVERAGE MISS LATENCY LOAD: 5.39982 cycles
L0D AVERAGE MISS LATENCY PREFETCH: -nan cycles
L0D AVERAGE MSHR OCCUPANCY: 0.484192
L0D MSHR FULL: 0
L0D RQ	ACCESS:   58954096	FORWARD:          0	MERGED:   16037767	TO_CACHE:   42916329
L0D WQ	ACCESS:    2967095	FORWARD:          0	MERGED:          0	TO_CACHE:    2967095

L1D SPEC fills:          0  NON-SPEC fills:      33954
L1D Test counter :          0
L1D Leapfrog:          0
L1D MSHR merge:        229
L1D TOTAL     ACCESS:  111202694  HIT:  106640909  MISS:    4561785  HIT %:    95.8978  MISS %:    4.10223   MPKI: 22.8089
L1D LOAD      TOTAL       ACCESS:   36606268  HIT:   36251357  MISS:     354911  HIT %:    99.0305  MISS %:   0.969536   MPKI: 1.77455
L1D LOAD      NON_SPEC    ACCESS:    6050378  HIT:    6016424  MISS:      33954  HIT %:    99.4388  MISS %:   0.561188   MPKI: 0.16977
L1D LOAD      SPEC        ACCESS:   30555890  HIT:   30234933  MISS:     320957  HIT %:    98.9496  MISS %:    1.05039   MPKI: 1.60478
L1D RFO       NON_SPEC    ACCESS:    2947771  HIT:    2944743  MISS:       3028  HIT %:    99.8973  MISS %:   0.102722   MPKI: 0.01514
L1D PREFETCH  NON_SPEC    ACCESS:   27542744  HIT:   23660318  MISS:    3882426  HIT %:     85.904  MISS %:     14.096   MPKI: 19.4121
L1D COMMIT LOAD NON_SPEC    ACCESS:   13647477  HIT:   13646191  MISS:       1286  HIT %:    99.9906  MISS %: 0.00942299   MPKI: 0.00643
L1D COMMIT WRITE NON_SPEC    ACCESS:   30458434  HIT:   30138300  MISS:     320134  HIT %:    98.9489  MISS %:    1.05105   MPKI: 1.60067
L1D PREFETCH  REQUESTED:   54292422  ISSUED:   39496600  USEFUL:    3632324  USELESS:     250106
L1D USEFUL LOAD PREFETCHES:    3632324 PREFETCH ISSUED TO LOWER LEVEL:    7067837  ACCURACY: 51.3923
L1D TIMELY PREFETCHES:    3632324 LATE PREFETCHES: 164 DROPPED PREFETCHES: 25257
L1D COMMIT LATE PREFETCHES: 0 NORMAL LATE: 164 MISSED OPPORTUNITY: 0 UNCOVERED: 354747
L1D PREFETCHES SAME FILL-ORIGIN LEVEL: 3882634 DIFFERENT FILL-ORIGIN LEVEL: 3185203
L1D AVERAGE MISS LATENCY: 90.8962 cycles
L1D AVERAGE MISS LATENCY LOAD: 34.2152 cycles
L1D AVERAGE MISS LATENCY PREFETCH: 103.596 cycles
L1D AVERAGE MSHR OCCUPANCY: 1.78597
L1D MSHR FULL: 2.72211e-05
L1D RQ	ACCESS:   58877874	FORWARD:          0	MERGED:    8623219	TO_CACHE:   50253925
L1D WQ	ACCESS:   33425529	FORWARD:        730	MERGED:      11221	TO_CACHE:   33414308
L1D PQ	ACCESS:   39496600	FORWARD:          0	MERGED:    8499833	TO_CACHE:   30996767

L1D UNIQUE REGIONS ACCESSED: 0
L1D REGIONS CONFLICTS: 0
L1D Cross Page Prefetch Requests: 25572298
L1D Same Page Prefetch Requests: 22266871
L1D ROI Sum of L1D PQ occupancy: 491492051
L1D PREFETCHES PUSHED FROM L2C: 0
L1I SPEC fills:          0  NON-SPEC fills:          0
L1I Test counter :          0
L1I Leapfrog:          0
L1I MSHR merge:          8
L1I TOTAL     ACCESS:   37106784  HIT:   37106692  MISS:         92  HIT %:    99.9998  MISS %: 0.000247933   MPKI: 0.00046
L1I LOAD      TOTAL       ACCESS:   37106784  HIT:   37106692  MISS:         92  HIT %:    99.9998  MISS %: 0.000247933   MPKI: 0.00046
L1I LOAD      NON_SPEC    ACCESS:   37106784  HIT:   37106692  MISS:         92  HIT %:    99.9998  MISS %: 0.000247933   MPKI: 0.00046
L1I PREFETCH  REQUESTED:          0  ISSUED:          0  USEFUL:          0  USELESS:          0
L1I USEFUL LOAD PREFETCHES:          0 PREFETCH ISSUED TO LOWER LEVEL:          0  ACCURACY: -nan
L1I TIMELY PREFETCHES:          0 LATE PREFETCHES: 0 DROPPED PREFETCHES: 0
L1I COMMIT LATE PREFETCHES: 0 NORMAL LATE: 0 MISSED OPPORTUNITY: 0 UNCOVERED: 92
L1I PREFETCHES SAME FILL-ORIGIN LEVEL: 0 DIFFERENT FILL-ORIGIN LEVEL: 0
L1I AVERAGE MISS LATENCY: 203.141 cycles
L1I AVERAGE MISS LATENCY LOAD: 203.141 cycles
L1I AVERAGE MISS LATENCY PREFETCH: -nan cycles
L1I AVERAGE MSHR OCCUPANCY: 9.43224e-07
L1I MSHR FULL: 0
L1I RQ	ACCESS:   73298369	FORWARD:          0	MERGED:   36191576	TO_CACHE:   37106793

BTB SPEC fills:          0  NON-SPEC fills:          0
BTB Test counter :          0
BTB Leapfrog:          0
BTB MSHR merge:          0
BTB TOTAL     ACCESS:   32869649  HIT:   32861232  MISS:       8417  HIT %:    99.9744  MISS %:  0.0256072   MPKI: 0.042085
BTB BRANCH_DIRECT_JUMP	ACCESS:      10018  HIT:       9991  MISS:         27
BTB BRANCH_INDIRECT	ACCESS:          0  HIT:          0  MISS:          0
BTB BRANCH_CONDITIONAL	ACCESS:   30064978  HIT:   30064867  MISS:        111
BTB BRANCH_DIRECT_CALL	ACCESS:     706558  HIT:     706534  MISS:         24
BTB BRANCH_INDIRECT_CALL	ACCESS:     690769  HIT:     690752  MISS:         17
BTB BRANCH_RETURN	ACCESS:    1397326  HIT:    1389088  MISS:       8238
BTB BRANCH_OTHER ACCESS:          0  HIT:          0  MISS:          0

L2C SPEC fills:          0  NON-SPEC fills:       5884
L2C Test counter :          0
L2C Leapfrog:          0
L2C MSHR merge:       2017
L2C TOTAL     ACCESS:   10485118  HIT:    6951626  MISS:    3533492  HIT %:    66.2999  MISS %:    33.7001   MPKI: 17.6675
L2C LOAD      TOTAL       ACCESS:     354839  HIT:     293820  MISS:      61019  HIT %:    82.8038  MISS %:    17.1962   MPKI: 0.305095
L2C LOAD      NON_SPEC    ACCESS:      34042  HIT:      28066  MISS:       5976  HIT %:    82.4452  MISS %:    17.5548   MPKI: 0.02988
L2C LOAD      SPEC        ACCESS:     320797  HIT:     265754  MISS:      55043  HIT %:    82.8418  MISS %:    17.1582   MPKI: 0.275215
L2C RFO       NON_SPEC    ACCESS:       2988  HIT:       1917  MISS:       1071  HIT %:    64.1566  MISS %:    35.8434   MPKI: 0.005355
L2C PREFETCH  NON_SPEC    ACCESS:    7011707  HIT:    3597217  MISS:    3414490  HIT %:     51.303  MISS %:     48.697   MPKI: 17.0724
L2C WRITEBACK NON_SPEC    ACCESS:       6686  HIT:       6686  MISS:          0  HIT %:        100  MISS %:          0   MPKI: 0
L2C CLEAN_EVICTION NON_SPEC    ACCESS:    3051651  HIT:    2996644  MISS:      55007  HIT %:    98.1975  MISS %:    1.80253   MPKI: 0.275035
L2C COMMIT LOAD NON_SPEC    ACCESS:       1286  HIT:        841  MISS:        445  HIT %:    65.3966  MISS %:    34.6034   MPKI: 0.002225
L2C LOAD TRANSLATION NON_SPEC    ACCESS:       3725  HIT:       3367  MISS:        358  HIT %:    90.3893  MISS %:    9.61074   MPKI: 0.00179
L2C TRANSLATION FROM L1D PREFETCHER NON_SPEC    ACCESS:      52236  HIT:      51134  MISS:       1102  HIT %:    97.8903  MISS %:    2.10966   MPKI: 0.00551
L2C PREFETCH  REQUESTED:          0  ISSUED:          0  USEFUL:     229947  USELESS:    3190027
L2C USEFUL LOAD PREFETCHES:     229947 PREFETCH ISSUED TO LOWER LEVEL:    3416515  ACCURACY: 6.73045
L2C TIMELY PREFETCHES:     229947 LATE PREFETCHES: 2025 DROPPED PREFETCHES: 0
L2C COMMIT LATE PREFETCHES: 0 NORMAL LATE: 2025 MISSED OPPORTUNITY: 0 UNCOVERED: 58994
L2C PREFETCHES SAME FILL-ORIGIN LEVEL: 1446144 DIFFERENT FILL-ORIGIN LEVEL: 0
L2C AVERAGE MISS LATENCY: 169.257 cycles
L2C AVERAGE MISS LATENCY LOAD: 132.81 cycles
L2C AVERAGE MISS LATENCY PREFETCH: 172.61 cycles
L2C AVERAGE MSHR OCCUPANCY: 0.709322
L2C MSHR FULL: 0
L2C RQ	ACCESS:     415075	FORWARD:          0	MERGED:          0	TO_CACHE:     415075
L2C WQ	ACCESS:    3058338	FORWARD:         45	MERGED:          0	TO_CACHE:    3058338
L2C PQ	ACCESS:    7067834	FORWARD:          0	MERGED:          8	TO_CACHE:    7067781

L2C Instructions Evicting Data 92
L2C Translations Evicting Data 1460
L2C Data Evicting Data 3420545
L2C Instructions Evicting Instructions 0
L2C Translations Evicting Instructions 0
L2C Data Evicting Instructions 41
L2C Instructions Evicting Translations 0
L2C Translations Evicting Translations 0
L2C Data Evicting Translations 1304
L2C Dense regions hint from L2: 0
PSCL5 SPEC fills:          0  NON-SPEC fills:          0
PSCL5 Test counter :          0
PSCL5 Leapfrog:          0
PSCL5 MSHR merge:          0
PSCL5 TOTAL     ACCESS:          0  HIT:          0  MISS:          0  HIT %:       -nan  MISS %:       -nan   MPKI: 0
PSCL5 PREFETCH  REQUESTED:          0  ISSUED:          0  USEFUL:          0  USELESS:          0
PSCL5 USEFUL LOAD PREFETCHES:          0 PREFETCH ISSUED TO LOWER LEVEL:          0  ACCURACY: -nan
PSCL5 TIMELY PREFETCHES:          0 LATE PREFETCHES: 0 DROPPED PREFETCHES: 0
PSCL5 COMMIT LATE PREFETCHES: 0 NORMAL LATE: 0 MISSED OPPORTUNITY: 0 UNCOVERED: 0
PSCL5 PREFETCHES SAME FILL-ORIGIN LEVEL: 0 DIFFERENT FILL-ORIGIN LEVEL: 0

PSCL4 SPEC fills:          0  NON-SPEC fills:          0
PSCL4 Test counter :          0
PSCL4 Leapfrog:          0
PSCL4 MSHR merge:          0
PSCL4 TOTAL     ACCESS:          0  HIT:          0  MISS:          0  HIT %:       -nan  MISS %:       -nan   MPKI: 0
PSCL4 PREFETCH  REQUESTED:          0  ISSUED:          0  USEFUL:          0  USELESS:          0
PSCL4 USEFUL LOAD PREFETCHES:          0 PREFETCH ISSUED TO LOWER LEVEL:          0  ACCURACY: -nan
PSCL4 TIMELY PREFETCHES:          0 LATE PREFETCHES: 0 DROPPED PREFETCHES: 0
PSCL4 COMMIT LATE PREFETCHES: 0 NORMAL LATE: 0 MISSED OPPORTUNITY: 0 UNCOVERED: 0
PSCL4 PREFETCHES SAME FILL-ORIGIN LEVEL: 0 DIFFERENT FILL-ORIGIN LEVEL: 0

PSCL3 SPEC fills:          0  NON-SPEC fills:          0
PSCL3 Test counter :          0
PSCL3 Leapfrog:          0
PSCL3 MSHR merge:          0
PSCL3 TOTAL     ACCESS:          0  HIT:          0  MISS:          0  HIT %:       -nan  MISS %:       -nan   MPKI: 0
PSCL3 PREFETCH  REQUESTED:          0  ISSUED:          0  USEFUL:          0  USELESS:          0
PSCL3 USEFUL LOAD PREFETCHES:          0 PREFETCH ISSUED TO LOWER LEVEL:          0  ACCURACY: -nan
PSCL3 TIMELY PREFETCHES:          0 LATE PREFETCHES: 0 DROPPED PREFETCHES: 0
PSCL3 COMMIT LATE PREFETCHES: 0 NORMAL LATE: 0 MISSED OPPORTUNITY: 0 UNCOVERED: 0
PSCL3 PREFETCHES SAME FILL-ORIGIN LEVEL: 0 DIFFERENT FILL-ORIGIN LEVEL: 0

PSCL2 SPEC fills:          0  NON-SPEC fills:          0
PSCL2 Test counter :          0
PSCL2 Leapfrog:          0
PSCL2 MSHR merge:          0
PSCL2 TOTAL     ACCESS:          0  HIT:          0  MISS:          0  HIT %:       -nan  MISS %:       -nan   MPKI: 0
PSCL2 PREFETCH  REQUESTED:          0  ISSUED:          0  USEFUL:          0  USELESS:          0
PSCL2 USEFUL LOAD PREFETCHES:          0 PREFETCH ISSUED TO LOWER LEVEL:          0  ACCURACY: -nan
PSCL2 TIMELY PREFETCHES:          0 LATE PREFETCHES: 0 DROPPED PREFETCHES: 0
PSCL2 COMMIT LATE PREFETCHES: 0 NORMAL LATE: 0 MISSED OPPORTUNITY: 0 UNCOVERED: 0
PSCL2 PREFETCHES SAME FILL-ORIGIN LEVEL: 0 DIFFERENT FILL-ORIGIN LEVEL: 0

LLC SPEC fills:          0  NON-SPEC fills:       5199
LLC Test counter :          0
LLC Leapfrog:          0
LLC MSHR merge:          0
LLC TOTAL     ACCESS:    5928927  HIT:    3013009  MISS:    2915918  HIT %:    50.8188  MISS %:    49.1812   MPKI: 14.5796
LLC LOAD      TOTAL       ACCESS:      59002  HIT:      13652  MISS:      45350  HIT %:    23.1382  MISS %:    76.8618   MPKI: 0.22675
LLC LOAD      NON_SPEC    ACCESS:       5967  HIT:        676  MISS:       5291  HIT %:     11.329  MISS %:     88.671   MPKI: 0.026455
LLC LOAD      SPEC        ACCESS:      53035  HIT:      12976  MISS:      40059  HIT %:    24.4669  MISS %:    75.5331   MPKI: 0.200295
LLC RFO       NON_SPEC    ACCESS:       1063  HIT:          0  MISS:       1063  HIT %:          0  MISS %:        100   MPKI: 0.005315
LLC PREFETCH  NON_SPEC    ACCESS:    3416514  HIT:     598891  MISS:    2817623  HIT %:    17.5293  MISS %:    82.4707   MPKI: 14.0881
LLC WRITEBACK NON_SPEC    ACCESS:       1042  HIT:       1042  MISS:          0  HIT %:        100  MISS %:          0   MPKI: 0
LLC CLEAN_EVICTION NON_SPEC    ACCESS:    2449401  HIT:    2399423  MISS:      49978  HIT %:    97.9596  MISS %:    2.04042   MPKI: 0.24989
LLC COMMIT LOAD NON_SPEC    ACCESS:        445  HIT:          1  MISS:        444  HIT %:   0.224719  MISS %:    99.7753   MPKI: 0.00222
LLC LOAD TRANSLATION NON_SPEC    ACCESS:        358  HIT:          0  MISS:        358  HIT %:          0  MISS %:        100   MPKI: 0.00179
LLC TRANSLATION FROM L1D PREFETCHER NON_SPEC    ACCESS:       1102  HIT:          0  MISS:       1102  HIT %:          0  MISS %:        100   MPKI: 0.00551
LLC PREFETCH  REQUESTED:          0  ISSUED:          0  USEFUL:       2303  USELESS:    2819373
LLC USEFUL LOAD PREFETCHES:       2303 PREFETCH ISSUED TO LOWER LEVEL:    2817623  ACCURACY: 0.0817356
LLC TIMELY PREFETCHES:       2303 LATE PREFETCHES: 0 DROPPED PREFETCHES: 0
LLC COMMIT LATE PREFETCHES: 0 NORMAL LATE: 0 MISSED OPPORTUNITY: 0 UNCOVERED: 45350
LLC PREFETCHES SAME FILL-ORIGIN LEVEL: 0 DIFFERENT FILL-ORIGIN LEVEL: 0
LLC AVERAGE MISS LATENCY: 169.606 cycles
LLC AVERAGE MISS LATENCY LOAD: 147.536 cycles
LLC AVERAGE MISS LATENCY PREFETCH: 172.971 cycles
LLC AVERAGE MSHR OCCUPANCY: 0.832177
LLC MSHR FULL: 0
LLC RQ	ACCESS:      61970	FORWARD:          0	MERGED:          0	TO_CACHE:      61970
LLC WQ	ACCESS:    2450443	FORWARD:          1	MERGED:          0	TO_CACHE:    2450443
LLC PQ	ACCESS:    3416515	FORWARD:          0	MERGED:          0	TO_CACHE:    3416514

LLC Dense regions hint to LLC: 0

RAW hits: 11171
Loads Generated: 58965269
Loads sent to L1D: 58954096
Stores Generated: 2967094
Stores sent to L1D: 2967095
Major fault: 0 Minor fault: 1462
Allocated PAGES: 1462
Total Load insts: 73705027
Total Non-spec loads: 6420676
Percentage of speculative loads: 91.2887

LeapFrogging counter: 217
Commit hits: 30458434 miss: 22271541
Commit hit %: 57.763 miss %: 42.237
Commits not translated: 0
Loads retired: 354911
Stores retired: 2967095
Cache fills: 354911
L1D response latency: 34.2152 cycles
Load retirement latency: 57.1063 cycles
OOO test counter: 0
Discarded buffer inserts: 30458434 hits: 1622 hit %: 0.00532529
Filter prediction accuracy: -nan
LATENCY_FILL: 34.1449 354790

DRAM Statistics
 CHANNEL 0
 RQ ROW_BUFFER_HIT:     813679  ROW_BUFFER_MISS:    2052006
 DBUS_CONGESTED:       1092
 WQ ROW_BUFFER_HIT:    1139192  ROW_BUFFER_MISS:     748648  FULL:          0

 AVG_CONGESTED_CYCLE: 4
 All warmup complete: 2
Channel 0 Bank busy for read cycles: 0
Channel 0 Bank busy for write cycles: 0
Channel 0
Rank 0
0banks busy for read cycles: 40405492
0banks busy for write cycles: 38963
1banks busy for read cycles: 30136816
1banks busy for write cycles: 4125885
2banks busy for read cycles: 25267344
2banks busy for write cycles: 4712826
3banks busy for read cycles: 20795174
3banks busy for write cycles: 5365721
4banks busy for read cycles: 18428288
4banks busy for write cycles: 5854798
5banks busy for read cycles: 13287948
5banks busy for write cycles: 6511326
6banks busy for read cycles: 7378610
6banks busy for write cycles: 7757173
7banks busy for read cycles: 2179307
7banks busy for write cycles: 10974177
8banks busy for read cycles: 785256
8banks busy for write cycles: 24453814

CPU 0 Branch Prediction Accuracy: 99.9889% MPKI: 0.030745 Average ROB Occupancy at Mispredict: 47.0875
Branch types
NOT_BRANCH: 144470819 72.2354%
BRANCH_DIRECT_JUMP: 10018 0.005009%
BRANCH_INDIRECT: 0 0%
BRANCH_CONDITIONAL: 52724204 26.3621%
BRANCH_DIRECT_CALL: 706558 0.353279%
BRANCH_INDIRECT_CALL: 690769 0.345384%
BRANCH_RETURN: 1397326 0.698663%
BRANCH_OTHER: 0 0%

DRAM PAGES: 1048576
Allocated PAGES: 1462
