
*** ChampSim Multicore Out-of-Order Simulator ***

Warmup Instructions: 50000000
Simulation Instructions: 200000000
Number of CPUs: 1
LLC sets: 2048
LLC ways: 16
L0D sets: 16
L0D ways: 2
ROB size: 352
LQ size: 128
SQ size: 72
Secure Berti: OFF
Berti: OFF
Berti Fill: OFF
On commit prefetching: OFF
Hit-based filter: OFF
Time-guarding: ON
Free-slotting: ON
Leap-frogging: ON
Train prefetcher on L0D bypass: OFF
No translation penalty for prefetchers: OFF
Prefetch to L0D only: OFF
Prefetch to L1D only: OFF
Clean evictions: ON
Commit loads: ON
Commit write: ON
Fill commit loads to L2C, LLC: ON
DRAM IO FREQUENCY: 6400
ROB SIZE: 352
Off-chip DRAM Size: 4096 MB Channels: 1 Width: 64-bit Data Rate: 6400 MT/s
CPU 0 runs /home/sumon/secure_berti/GhostMinion/../../traces/spec/628.pop2_s-17B.champsimtrace.xz
.xz
BTB has LRU replacement policy
ITLB has LRU replacement policy
DTLB has LRU replacement policy
STLB has LRU replacement policy
L1I has LRU replacement policy
L0D has LRU replacement policy
History Sets: 8
History Ways: 16
BERTI Size: 16
BERTI Stride Size: 16
L1D has LRU replacement policy
L2C has LRU replacement policy
LLC has LRU replacement policy
Heartbeat CPU 0 instructions: 10000003 cycles: 3181529 heartbeat IPC: 3.14314 cumulative IPC: 3.14314 (Simulation time: 0 hr 0 min 30 sec) 
Heartbeat CPU 0 instructions: 20000001 cycles: 6361552 heartbeat IPC: 3.14463 cumulative IPC: 3.14389 (Simulation time: 0 hr 0 min 59 sec) 
Heartbeat CPU 0 instructions: 30000003 cycles: 9540978 heartbeat IPC: 3.14522 cumulative IPC: 3.14433 (Simulation time: 0 hr 1 min 29 sec) 
Heartbeat CPU 0 instructions: 40000003 cycles: 12718588 heartbeat IPC: 3.14702 cumulative IPC: 3.145 (Simulation time: 0 hr 1 min 59 sec) 
Heartbeat CPU 0 instructions: 50000000 cycles: 15895796 heartbeat IPC: 3.14742 cumulative IPC: 3.14549 (Simulation time: 0 hr 2 min 29 sec) 

Warmup complete CPU 0 instructions: 50000004 cycles: 15895797 (Simulation time: 0 hr 2 min 29 sec) 

Heartbeat CPU 0 instructions: 60000000 cycles: 28005156 heartbeat IPC: 0.825807 cumulative IPC: 0.825807 (Simulation time: 0 hr 3 min 10 sec) 
Heartbeat CPU 0 instructions: 70000002 cycles: 40011506 heartbeat IPC: 0.832893 cumulative IPC: 0.829335 (Simulation time: 0 hr 3 min 52 sec) 
Heartbeat CPU 0 instructions: 80000000 cycles: 51669936 heartbeat IPC: 0.857748 cumulative IPC: 0.838594 (Simulation time: 0 hr 4 min 30 sec) 
Heartbeat CPU 0 instructions: 90000003 cycles: 65042424 heartbeat IPC: 0.747804 cumulative IPC: 0.813891 (Simulation time: 0 hr 5 min 9 sec) 
Heartbeat CPU 0 instructions: 100000001 cycles: 76458783 heartbeat IPC: 0.875936 cumulative IPC: 0.825587 (Simulation time: 0 hr 5 min 52 sec) 
Heartbeat CPU 0 instructions: 110000000 cycles: 88730610 heartbeat IPC: 0.814875 cumulative IPC: 0.823782 (Simulation time: 0 hr 6 min 33 sec) 
Heartbeat CPU 0 instructions: 120000000 cycles: 101770114 heartbeat IPC: 0.7669 cumulative IPC: 0.815145 (Simulation time: 0 hr 7 min 11 sec) 
Heartbeat CPU 0 instructions: 130000000 cycles: 114910988 heartbeat IPC: 0.760984 cumulative IPC: 0.807957 (Simulation time: 0 hr 7 min 51 sec) 
Heartbeat CPU 0 instructions: 140000003 cycles: 128861812 heartbeat IPC: 0.716804 cumulative IPC: 0.7967 (Simulation time: 0 hr 8 min 25 sec) 
Heartbeat CPU 0 instructions: 150000000 cycles: 142032784 heartbeat IPC: 0.759245 cumulative IPC: 0.792789 (Simulation time: 0 hr 8 min 58 sec) 
Heartbeat CPU 0 instructions: 160000000 cycles: 156367032 heartbeat IPC: 0.69763 cumulative IPC: 0.783078 (Simulation time: 0 hr 9 min 34 sec) 
Heartbeat CPU 0 instructions: 170000002 cycles: 167392112 heartbeat IPC: 0.907023 cumulative IPC: 0.792098 (Simulation time: 0 hr 10 min 17 sec) 
Heartbeat CPU 0 instructions: 180000003 cycles: 179092964 heartbeat IPC: 0.854639 cumulative IPC: 0.796582 (Simulation time: 0 hr 11 min 4 sec) 
Heartbeat CPU 0 instructions: 190000000 cycles: 191119243 heartbeat IPC: 0.831512 cumulative IPC: 0.79898 (Simulation time: 0 hr 11 min 52 sec) 
Heartbeat CPU 0 instructions: 200000000 cycles: 203070319 heartbeat IPC: 0.836745 cumulative IPC: 0.801391 (Simulation time: 0 hr 12 min 39 sec) 
Heartbeat CPU 0 instructions: 210000000 cycles: 215027625 heartbeat IPC: 0.836309 cumulative IPC: 0.803488 (Simulation time: 0 hr 13 min 27 sec) 
Heartbeat CPU 0 instructions: 220000000 cycles: 226990805 heartbeat IPC: 0.835898 cumulative IPC: 0.805325 (Simulation time: 0 hr 14 min 14 sec) 
Heartbeat CPU 0 instructions: 230000000 cycles: 239092397 heartbeat IPC: 0.826338 cumulative IPC: 0.806464 (Simulation time: 0 hr 15 min 1 sec) 
Heartbeat CPU 0 instructions: 240000002 cycles: 251199824 heartbeat IPC: 0.825939 cumulative IPC: 0.807466 (Simulation time: 0 hr 15 min 48 sec) 
Heartbeat CPU 0 instructions: 250000002 cycles: 263264615 heartbeat IPC: 0.828858 cumulative IPC: 0.808509 (Simulation time: 0 hr 16 min 35 sec) 
Finished CPU 0 instructions: 200000002 cycles: 247368819 cumulative IPC: 0.808509 (Simulation time: 0 hr 16 min 35 sec) 
 Instruction ID: 250000115

ChampSim completed all CPUs

Region of Interest Statistics

CPU 0 cumulative IPC: 0.808509 instructions: 200000002 cycles: 247368819
ITLB SPEC fills:          0  NON-SPEC fills:          0
ITLB Test counter :          0
ITLB Leapfrog:          0
ITLB MSHR merge:          0
ITLB TOTAL     ACCESS:   34349611  HIT:   34344795  MISS:       4816  HIT %:     99.986  MISS %:  0.0140205   MPKI: 0.02408
ITLB LOAD TRANSLATION NON_SPEC    ACCESS:   34349611  HIT:   34344795  MISS:       4816  HIT %:     99.986  MISS %:  0.0140205   MPKI: 0.02408
ITLB PREFETCH  REQUESTED:          0  ISSUED:          0  USEFUL:          0  USELESS:          0
ITLB USEFUL LOAD PREFETCHES:          0 PREFETCH ISSUED TO LOWER LEVEL:          0  ACCURACY: -nan
ITLB TIMELY PREFETCHES:          0 LATE PREFETCHES: 0 DROPPED PREFETCHES: 0
ITLB COMMIT LATE PREFETCHES: 0 NORMAL LATE: 0 MISSED OPPORTUNITY: 0 UNCOVERED: 0
ITLB PREFETCHES SAME FILL-ORIGIN LEVEL: 0 DIFFERENT FILL-ORIGIN LEVEL: 0
ITLB AVERAGE MISS LATENCY: 16.0083 cycles
ITLB AVERAGE MISS LATENCY LOAD: -nan cycles
ITLB AVERAGE MISS LATENCY PREFETCH: -nan cycles
ITLB AVERAGE MSHR OCCUPANCY: 7.25161e-05
ITLB MSHR FULL: 0
ITLB RQ	ACCESS:   39079848	FORWARD:          0	MERGED:    4728845	TO_CACHE:   34351003

DTLB SPEC fills:          0  NON-SPEC fills:          0
DTLB Test counter :          0
DTLB Leapfrog:          0
DTLB MSHR merge:          0
DTLB TOTAL     ACCESS:   45398205  HIT:   45298133  MISS:     100072  HIT %:    99.7796  MISS %:   0.220432   MPKI: 0.50036
DTLB LOAD TRANSLATION NON_SPEC    ACCESS:   45398205  HIT:   45298133  MISS:     100072  HIT %:    99.7796  MISS %:   0.220432   MPKI: 0.50036
DTLB PREFETCH  REQUESTED:          0  ISSUED:          0  USEFUL:          0  USELESS:          0
DTLB USEFUL LOAD PREFETCHES:          0 PREFETCH ISSUED TO LOWER LEVEL:          0  ACCURACY: -nan
DTLB TIMELY PREFETCHES:          0 LATE PREFETCHES: 0 DROPPED PREFETCHES: 0
DTLB COMMIT LATE PREFETCHES: 0 NORMAL LATE: 0 MISSED OPPORTUNITY: 0 UNCOVERED: 0
DTLB PREFETCHES SAME FILL-ORIGIN LEVEL: 0 DIFFERENT FILL-ORIGIN LEVEL: 0
DTLB AVERAGE MISS LATENCY: 25.7403 cycles
DTLB AVERAGE MISS LATENCY LOAD: -nan cycles
DTLB AVERAGE MISS LATENCY PREFETCH: -nan cycles
DTLB AVERAGE MSHR OCCUPANCY: 0.00658581
DTLB MSHR FULL: 4.15971e-05
DTLB RQ	ACCESS:   49600734	FORWARD:          0	MERGED:    4166712	TO_CACHE:   45434022

STLB SPEC fills:          0  NON-SPEC fills:          0
STLB Test counter :          0
STLB Leapfrog:          0
STLB MSHR merge:          0
STLB TOTAL     ACCESS:    7548902  HIT:    7539228  MISS:       9674  HIT %:    99.8718  MISS %:   0.128151   MPKI: 0.04837
STLB LOAD TRANSLATION NON_SPEC    ACCESS:     104888  HIT:      96960  MISS:       7928  HIT %:    92.4415  MISS %:    7.55854   MPKI: 0.03964
STLB TRANSLATION FROM L1D PREFETCHER NON_SPEC    ACCESS:    7444014  HIT:    7442268  MISS:       1746  HIT %:    99.9765  MISS %:  0.0234551   MPKI: 0.00873
STLB PREFETCH  REQUESTED:          0  ISSUED:          0  USEFUL:       1738  USELESS:          5
STLB USEFUL LOAD PREFETCHES:       1738 PREFETCH ISSUED TO LOWER LEVEL:          0  ACCURACY: inf
STLB TIMELY PREFETCHES:       1738 LATE PREFETCHES: 1086 DROPPED PREFETCHES: 58841
STLB COMMIT LATE PREFETCHES: 0 NORMAL LATE: 1086 MISSED OPPORTUNITY: 0 UNCOVERED: 18446744073709550530
STLB PREFETCHES SAME FILL-ORIGIN LEVEL: 0 DIFFERENT FILL-ORIGIN LEVEL: 0
STLB AVERAGE MISS LATENCY: 200.336 cycles
STLB AVERAGE MISS LATENCY LOAD: -nan cycles
STLB AVERAGE MISS LATENCY PREFETCH: -nan cycles
STLB AVERAGE MSHR OCCUPANCY: 0.0240274
STLB MSHR FULL: 0
STLB RQ	ACCESS:   41337260	FORWARD:          0	MERGED:   33714075	TO_CACHE:    7623185

STLB Hit, L1D data hit: 0
STLB Hit, L2C data hit: 0
STLB Hit, LLC data hit: 0
STLB Hit, LLC data miss: 0
STLB STLB hints to L2: 0
L0D SPEC fills:   25814969  NON-SPEC fills:          0
L0D TimeGuard Request with older TS:     121788 Restricted eviction:      95069 read:     139888
L0D Test counter :          0
L0D Leapfrog:          0
L0D MSHR merge:     868761
L0D TOTAL     ACCESS:   35131656  HIT:    3858657  MISS:   31272999  HIT %:    10.9834  MISS %:    89.0166   MPKI: 156.365
L0D LOAD      TOTAL       ACCESS:   35131656  HIT:    3858657  MISS:   31272999  HIT %:    10.9834  MISS %:    89.0166   MPKI: 156.365
L0D LOAD      NON_SPEC    ACCESS:    5504796  HIT:     141765  MISS:    5363031  HIT %:     2.5753  MISS %:    97.4247   MPKI: 26.8152
L0D LOAD      SPEC        ACCESS:   29626860  HIT:    3716892  MISS:   25909968  HIT %:    12.5457  MISS %:    87.4543   MPKI: 129.55
L0D PREFETCH  REQUESTED:          0  ISSUED:          0  USEFUL:          0  USELESS:          0
L0D USEFUL LOAD PREFETCHES:          0 PREFETCH ISSUED TO LOWER LEVEL:          0  ACCURACY: -nan
L0D TIMELY PREFETCHES:          0 LATE PREFETCHES: 0 DROPPED PREFETCHES: 0
L0D COMMIT LATE PREFETCHES: 0 NORMAL LATE: 0 MISSED OPPORTUNITY: 0 UNCOVERED: 31272999
L0D PREFETCHES SAME FILL-ORIGIN LEVEL: 0 DIFFERENT FILL-ORIGIN LEVEL: 0
L0D AVERAGE MISS LATENCY: 5.79442 cycles
L0D AVERAGE MISS LATENCY LOAD: 5.79442 cycles
L0D AVERAGE MISS LATENCY PREFETCH: -nan cycles
L0D AVERAGE MSHR OCCUPANCY: 0.815752
L0D MSHR FULL: 0.00653942
L0D RQ	ACCESS:   40081480	FORWARD:          0	MERGED:    4081063	TO_CACHE:   36000417
L0D WQ	ACCESS:   13600317	FORWARD:          0	MERGED:          0	TO_CACHE:   13600317

L1D SPEC fills:          0  NON-SPEC fills:      74424
L1D Test counter :          0
L1D Leapfrog:          0
L1D MSHR merge:      29069
L1D TOTAL     ACCESS:  107057741  HIT:  103322343  MISS:    3735398  HIT %:    96.5109  MISS %:    3.48914   MPKI: 18.677
L1D LOAD      TOTAL       ACCESS:   31269851  HIT:   30657200  MISS:     612651  HIT %:    98.0408  MISS %:    1.95924   MPKI: 3.06325
L1D LOAD      NON_SPEC    ACCESS:    5362614  HIT:    5288190  MISS:      74424  HIT %:    98.6122  MISS %:    1.38783   MPKI: 0.37212
L1D LOAD      SPEC        ACCESS:   25907237  HIT:   25369010  MISS:     538227  HIT %:    97.9225  MISS %:    2.07752   MPKI: 2.69113
L1D RFO       NON_SPEC    ACCESS:   11194662  HIT:   10216416  MISS:     978246  HIT %:    91.2615  MISS %:     8.7385   MPKI: 4.89123
L1D PREFETCH  NON_SPEC    ACCESS:   32698095  HIT:   31079319  MISS:    1618776  HIT %:    95.0493  MISS %:    4.95067   MPKI: 8.09388
L1D COMMIT LOAD NON_SPEC    ACCESS:    6200821  HIT:    6189299  MISS:      11522  HIT %:    99.8142  MISS %:   0.185814   MPKI: 0.05761
L1D COMMIT WRITE NON_SPEC    ACCESS:   25694312  HIT:   25180109  MISS:     514203  HIT %:    97.9988  MISS %:    2.00123   MPKI: 2.57101
L1D PREFETCH  REQUESTED:   64700612  ISSUED:   49510136  USEFUL:    1387081  USELESS:     231660
L1D USEFUL LOAD PREFETCHES:    1387081 PREFETCH ISSUED TO LOWER LEVEL:    9214176  ACCURACY: 15.0538
L1D TIMELY PREFETCHES:    1387081 LATE PREFETCHES: 25942 DROPPED PREFETCHES: 163472
L1D COMMIT LATE PREFETCHES: 0 NORMAL LATE: 25942 MISSED OPPORTUNITY: 0 UNCOVERED: 586709
L1D PREFETCHES SAME FILL-ORIGIN LEVEL: 1644718 DIFFERENT FILL-ORIGIN LEVEL: 7569458
L1D AVERAGE MISS LATENCY: 48.5456 cycles
L1D AVERAGE MISS LATENCY LOAD: 34.7137 cycles
L1D AVERAGE MISS LATENCY PREFETCH: 50.4926 cycles
L1D AVERAGE MSHR OCCUPANCY: 0.890116
L1D MSHR FULL: 0.00562783
L1D RQ	ACCESS:   39941204	FORWARD:          0	MERGED:    2185366	TO_CACHE:   37475118
L1D WQ	ACCESS:   39152450	FORWARD:     280720	MERGED:     395866	TO_CACHE:   38756584
L1D PQ	ACCESS:   49510136	FORWARD:          0	MERGED:    8277764	TO_CACHE:   41232372

L1D UNIQUE REGIONS ACCESSED: 0
L1D REGIONS CONFLICTS: 0
L1D Cross Page Prefetch Requests: 4760017
L1D Same Page Prefetch Requests: 53654245
L1D ROI Sum of L1D PQ occupancy: 664789339
L1D PREFETCHES PUSHED FROM L2C: 0
L1I SPEC fills:          0  NON-SPEC fills:          0
L1I Test counter :          0
L1I Leapfrog:          0
L1I MSHR merge:      47911
L1I TOTAL     ACCESS:   39031937  HIT:   38917133  MISS:     114804  HIT %:    99.7059  MISS %:   0.294128   MPKI: 0.57402
L1I LOAD      TOTAL       ACCESS:   39031937  HIT:   38917133  MISS:     114804  HIT %:    99.7059  MISS %:   0.294128   MPKI: 0.57402
L1I LOAD      NON_SPEC    ACCESS:   39031937  HIT:   38917133  MISS:     114804  HIT %:    99.7059  MISS %:   0.294128   MPKI: 0.57402
L1I PREFETCH  REQUESTED:          0  ISSUED:          0  USEFUL:          0  USELESS:          0
L1I USEFUL LOAD PREFETCHES:          0 PREFETCH ISSUED TO LOWER LEVEL:          0  ACCURACY: -nan
L1I TIMELY PREFETCHES:          0 LATE PREFETCHES: 0 DROPPED PREFETCHES: 0
L1I COMMIT LATE PREFETCHES: 0 NORMAL LATE: 0 MISSED OPPORTUNITY: 0 UNCOVERED: 114804
L1I PREFETCHES SAME FILL-ORIGIN LEVEL: 0 DIFFERENT FILL-ORIGIN LEVEL: 0
L1I AVERAGE MISS LATENCY: 50.2962 cycles
L1I AVERAGE MISS LATENCY LOAD: 50.2962 cycles
L1I AVERAGE MISS LATENCY PREFETCH: -nan cycles
L1I AVERAGE MSHR OCCUPANCY: 0.00444682
L1I MSHR FULL: 0
L1I RQ	ACCESS:   60752568	FORWARD:          0	MERGED:   21672720	TO_CACHE:   39079848

BTB SPEC fills:          0  NON-SPEC fills:          0
BTB Test counter :          0
BTB Leapfrog:          0
BTB MSHR merge:          0
BTB TOTAL     ACCESS:   29674711  HIT:   29620836  MISS:      53875  HIT %:    99.8184  MISS %:   0.181552   MPKI: 0.269375
BTB BRANCH_DIRECT_JUMP	ACCESS:     633395  HIT:     632983  MISS:        412
BTB BRANCH_INDIRECT	ACCESS:       8917  HIT:       8176  MISS:        741
BTB BRANCH_CONDITIONAL	ACCESS:   27681837  HIT:   27678187  MISS:       3650
BTB BRANCH_DIRECT_CALL	ACCESS:     675281  HIT:     673574  MISS:       1707
BTB BRANCH_INDIRECT_CALL	ACCESS:          0  HIT:          0  MISS:          0
BTB BRANCH_RETURN	ACCESS:     675281  HIT:     627916  MISS:      47365
BTB BRANCH_OTHER ACCESS:          0  HIT:          0  MISS:          0

L2C SPEC fills:          0  NON-SPEC fills:      17567
L2C Test counter :          0
L2C Leapfrog:          0
L2C MSHR merge:       2000
L2C TOTAL     ACCESS:   13418147  HIT:   11834639  MISS:    1583508  HIT %:    88.1988  MISS %:    11.8012   MPKI: 7.91754
L2C LOAD      TOTAL       ACCESS:     701103  HIT:     429326  MISS:     271777  HIT %:    61.2358  MISS %:    38.7642   MPKI: 1.35888
L2C LOAD      NON_SPEC    ACCESS:     188225  HIT:      60118  MISS:     128107  HIT %:    31.9394  MISS %:    68.0606   MPKI: 0.640535
L2C LOAD      SPEC        ACCESS:     512878  HIT:     369208  MISS:     143670  HIT %:    71.9875  MISS %:    28.0125   MPKI: 0.71835
L2C RFO       NON_SPEC    ACCESS:     978081  HIT:     611651  MISS:     366430  HIT %:    62.5358  MISS %:    37.4642   MPKI: 1.83215
L2C PREFETCH  NON_SPEC    ACCESS:    8508781  HIT:    7718312  MISS:     790469  HIT %:      90.71  MISS %:    9.29004   MPKI: 3.95234
L2C WRITEBACK NON_SPEC    ACCESS:     997266  HIT:     996307  MISS:        959  HIT %:    99.9038  MISS %:  0.0961629   MPKI: 0.004795
L2C CLEAN_EVICTION NON_SPEC    ACCESS:    1873774  HIT:    1731307  MISS:     142467  HIT %:    92.3968  MISS %:    7.60321   MPKI: 0.712335
L2C COMMIT LOAD NON_SPEC    ACCESS:      11345  HIT:       9068  MISS:       2277  HIT %:    79.9295  MISS %:    20.0705   MPKI: 0.011385
L2C LOAD TRANSLATION NON_SPEC    ACCESS:      39494  HIT:      36359  MISS:       3135  HIT %:    92.0621  MISS %:    7.93791   MPKI: 0.015675
L2C TRANSLATION FROM L1D PREFETCHER NON_SPEC    ACCESS:     308303  HIT:     302309  MISS:       5994  HIT %:    98.0558  MISS %:    1.94419   MPKI: 0.02997
L2C PREFETCH  REQUESTED:          0  ISSUED:          0  USEFUL:     122258  USELESS:     674417
L2C USEFUL LOAD PREFETCHES:     122258 PREFETCH ISSUED TO LOWER LEVEL:     792470  ACCURACY: 15.4275
L2C TIMELY PREFETCHES:     122258 LATE PREFETCHES: 2001 DROPPED PREFETCHES: 0
L2C COMMIT LATE PREFETCHES: 0 NORMAL LATE: 2001 MISSED OPPORTUNITY: 0 UNCOVERED: 269776
L2C PREFETCHES SAME FILL-ORIGIN LEVEL: 423522 DIFFERENT FILL-ORIGIN LEVEL: 0
L2C AVERAGE MISS LATENCY: 126.678 cycles
L2C AVERAGE MISS LATENCY LOAD: 56.2175 cycles
L2C AVERAGE MISS LATENCY PREFETCH: 153.261 cycles
L2C AVERAGE MSHR OCCUPANCY: 1.29328
L2C MSHR FULL: 0.000427141
L2C RQ	ACCESS:    2039078	FORWARD:          0	MERGED:          0	TO_CACHE:    2038326
L2C WQ	ACCESS:    2871072	FORWARD:        955	MERGED:         32	TO_CACHE:    2871040
L2C PQ	ACCESS:    9210519	FORWARD:          0	MERGED:        711	TO_CACHE:    9209605

L2C Instructions Evicting Data 99755
L2C Translations Evicting Data 8469
L2C Data Evicting Data 1083483
L2C Instructions Evicting Instructions 10004
L2C Translations Evicting Instructions 585
L2C Data Evicting Instructions 86023
L2C Instructions Evicting Translations 781
L2C Translations Evicting Translations 75
L2C Data Evicting Translations 7237
L2C Dense regions hint from L2: 0
PSCL5 SPEC fills:          0  NON-SPEC fills:          0
PSCL5 Test counter :          0
PSCL5 Leapfrog:          0
PSCL5 MSHR merge:          0
PSCL5 TOTAL     ACCESS:          0  HIT:          0  MISS:          0  HIT %:       -nan  MISS %:       -nan   MPKI: 0
PSCL5 PREFETCH  REQUESTED:          0  ISSUED:          0  USEFUL:          0  USELESS:          0
PSCL5 USEFUL LOAD PREFETCHES:          0 PREFETCH ISSUED TO LOWER LEVEL:          0  ACCURACY: -nan
PSCL5 TIMELY PREFETCHES:          0 LATE PREFETCHES: 0 DROPPED PREFETCHES: 0
PSCL5 COMMIT LATE PREFETCHES: 0 NORMAL LATE: 0 MISSED OPPORTUNITY: 0 UNCOVERED: 0
PSCL5 PREFETCHES SAME FILL-ORIGIN LEVEL: 0 DIFFERENT FILL-ORIGIN LEVEL: 0

PSCL4 SPEC fills:          0  NON-SPEC fills:          0
PSCL4 Test counter :          0
PSCL4 Leapfrog:          0
PSCL4 MSHR merge:          0
PSCL4 TOTAL     ACCESS:          0  HIT:          0  MISS:          0  HIT %:       -nan  MISS %:       -nan   MPKI: 0
PSCL4 PREFETCH  REQUESTED:          0  ISSUED:          0  USEFUL:          0  USELESS:          0
PSCL4 USEFUL LOAD PREFETCHES:          0 PREFETCH ISSUED TO LOWER LEVEL:          0  ACCURACY: -nan
PSCL4 TIMELY PREFETCHES:          0 LATE PREFETCHES: 0 DROPPED PREFETCHES: 0
PSCL4 COMMIT LATE PREFETCHES: 0 NORMAL LATE: 0 MISSED OPPORTUNITY: 0 UNCOVERED: 0
PSCL4 PREFETCHES SAME FILL-ORIGIN LEVEL: 0 DIFFERENT FILL-ORIGIN LEVEL: 0

PSCL3 SPEC fills:          0  NON-SPEC fills:          0
PSCL3 Test counter :          0
PSCL3 Leapfrog:          0
PSCL3 MSHR merge:          0
PSCL3 TOTAL     ACCESS:          0  HIT:          0  MISS:          0  HIT %:       -nan  MISS %:       -nan   MPKI: 0
PSCL3 PREFETCH  REQUESTED:          0  ISSUED:          0  USEFUL:          0  USELESS:          0
PSCL3 USEFUL LOAD PREFETCHES:          0 PREFETCH ISSUED TO LOWER LEVEL:          0  ACCURACY: -nan
PSCL3 TIMELY PREFETCHES:          0 LATE PREFETCHES: 0 DROPPED PREFETCHES: 0
PSCL3 COMMIT LATE PREFETCHES: 0 NORMAL LATE: 0 MISSED OPPORTUNITY: 0 UNCOVERED: 0
PSCL3 PREFETCHES SAME FILL-ORIGIN LEVEL: 0 DIFFERENT FILL-ORIGIN LEVEL: 0

PSCL2 SPEC fills:          0  NON-SPEC fills:          0
PSCL2 Test counter :          0
PSCL2 Leapfrog:          0
PSCL2 MSHR merge:          0
PSCL2 TOTAL     ACCESS:          0  HIT:          0  MISS:          0  HIT %:       -nan  MISS %:       -nan   MPKI: 0
PSCL2 PREFETCH  REQUESTED:          0  ISSUED:          0  USEFUL:          0  USELESS:          0
PSCL2 USEFUL LOAD PREFETCHES:          0 PREFETCH ISSUED TO LOWER LEVEL:          0  ACCURACY: -nan
PSCL2 TIMELY PREFETCHES:          0 LATE PREFETCHES: 0 DROPPED PREFETCHES: 0
PSCL2 COMMIT LATE PREFETCHES: 0 NORMAL LATE: 0 MISSED OPPORTUNITY: 0 UNCOVERED: 0
PSCL2 PREFETCHES SAME FILL-ORIGIN LEVEL: 0 DIFFERENT FILL-ORIGIN LEVEL: 0

LLC SPEC fills:          0  NON-SPEC fills:       3397
LLC Test counter :          0
LLC Leapfrog:          0
LLC MSHR merge:          0
LLC TOTAL     ACCESS:    2609072  HIT:    1877353  MISS:     731719  HIT %:    71.9548  MISS %:    28.0452   MPKI: 3.65859
LLC LOAD      TOTAL       ACCESS:     269774  HIT:     217965  MISS:      51809  HIT %:    80.7954  MISS %:    19.2046   MPKI: 0.259045
LLC LOAD      NON_SPEC    ACCESS:     127995  HIT:     120160  MISS:       7835  HIT %:    93.8787  MISS %:    6.12133   MPKI: 0.039175
LLC LOAD      SPEC        ACCESS:     141779  HIT:      97805  MISS:      43974  HIT %:    68.9841  MISS %:    31.0159   MPKI: 0.21987
LLC RFO       NON_SPEC    ACCESS:     366426  HIT:     170039  MISS:     196387  HIT %:    46.4047  MISS %:    53.5953   MPKI: 0.981935
LLC PREFETCH  NON_SPEC    ACCESS:     792462  HIT:     363146  MISS:     429316  HIT %:     45.825  MISS %:     54.175   MPKI: 2.14658
LLC WRITEBACK NON_SPEC    ACCESS:     383252  HIT:     377567  MISS:       5685  HIT %:    98.5166  MISS %:    1.48336   MPKI: 0.028425
LLC CLEAN_EVICTION NON_SPEC    ACCESS:     785752  HIT:     739903  MISS:      45849  HIT %:     94.165  MISS %:    5.83505   MPKI: 0.229245
LLC COMMIT LOAD NON_SPEC    ACCESS:       2277  HIT:       1612  MISS:        665  HIT %:    70.7949  MISS %:    29.2051   MPKI: 0.003325
LLC LOAD TRANSLATION NON_SPEC    ACCESS:       3135  HIT:       1910  MISS:       1225  HIT %:     60.925  MISS %:     39.075   MPKI: 0.006125
LLC TRANSLATION FROM L1D PREFETCHER NON_SPEC    ACCESS:       5994  HIT:       5211  MISS:        783  HIT %:    86.9369  MISS %:    13.0631   MPKI: 0.003915
LLC PREFETCH  REQUESTED:          0  ISSUED:          0  USEFUL:      24682  USELESS:     406344
LLC USEFUL LOAD PREFETCHES:      24682 PREFETCH ISSUED TO LOWER LEVEL:     429316  ACCURACY: 5.74915
LLC TIMELY PREFETCHES:      24682 LATE PREFETCHES: 0 DROPPED PREFETCHES: 0
LLC COMMIT LATE PREFETCHES: 0 NORMAL LATE: 0 MISSED OPPORTUNITY: 0 UNCOVERED: 51809
LLC PREFETCHES SAME FILL-ORIGIN LEVEL: 0 DIFFERENT FILL-ORIGIN LEVEL: 0
LLC AVERAGE MISS LATENCY: 216.579 cycles
LLC AVERAGE MISS LATENCY LOAD: 157.544 cycles
LLC AVERAGE MISS LATENCY PREFETCH: 227.9 cycles
LLC AVERAGE MSHR OCCUPANCY: 1.70311
LLC MSHR FULL: 0
LLC RQ	ACCESS:     647612	FORWARD:          0	MERGED:          0	TO_CACHE:     647606
LLC WQ	ACCESS:    1169004	FORWARD:         14	MERGED:          0	TO_CACHE:    1169004
LLC PQ	ACCESS:     792470	FORWARD:          0	MERGED:          0	TO_CACHE:     792462

LLC Dense regions hint to LLC: 0

RAW hits: 413066
Loads Generated: 40494547
Loads sent to L1D: 40081480
Stores Generated: 13600307
Stores sent to L1D: 13600317
Major fault: 0 Minor fault: 9397
Allocated PAGES: 9397
Total Load insts: 51094700
Total Non-spec loads: 6142419
Percentage of speculative loads: 87.9784

LeapFrogging counter: 142242
Commit hits: 25722100 miss: 8668206
Commit hit %: 74.7946 miss %: 25.2054
Commits not translated: 0
Loads retired: 612651
Stores retired: 13600317
Cache fills: 612651
L1D response latency: 34.7137 cycles
Load retirement latency: 72.6157 cycles
OOO test counter: 0
Discarded buffer inserts: 25722100 hits: 20158 hit %: 0.0783684
Filter prediction accuracy: -nan
LATENCY_FILL: 34.0297 614961

DRAM Statistics
 CHANNEL 0
 RQ ROW_BUFFER_HIT:     172812  ROW_BUFFER_MISS:     507349
 DBUS_CONGESTED:       1155
 WQ ROW_BUFFER_HIT:     159383  ROW_BUFFER_MISS:     479969  FULL:       1405

 AVG_CONGESTED_CYCLE: 5
 All warmup complete: 2
Channel 0 Bank busy for read cycles: 0
Channel 0 Bank busy for write cycles: 0
Channel 0
Rank 0
0banks busy for read cycles: 190882906
0banks busy for write cycles: 39910
1banks busy for read cycles: 14636263
1banks busy for write cycles: 4280387
2banks busy for read cycles: 10335767
2banks busy for write cycles: 1989576
3banks busy for read cycles: 3595995
3banks busy for write cycles: 1192294
4banks busy for read cycles: 2113825
4banks busy for write cycles: 955028
5banks busy for read cycles: 1342547
5banks busy for write cycles: 909273
6banks busy for read cycles: 1090189
6banks busy for write cycles: 891848
7banks busy for read cycles: 984467
7banks busy for write cycles: 1438676
8banks busy for read cycles: 1594546
8banks busy for write cycles: 9095323

CPU 0 Branch Prediction Accuracy: 99.215% MPKI: 1.19675 Average ROB Occupancy at Mispredict: 22.9207
Branch types
NOT_BRANCH: 169508277 84.7541%
BRANCH_DIRECT_JUMP: 633395 0.316697%
BRANCH_INDIRECT: 8917 0.0044585%
BRANCH_CONDITIONAL: 28498600 14.2493%
BRANCH_DIRECT_CALL: 675281 0.33764%
BRANCH_INDIRECT_CALL: 0 0%
BRANCH_RETURN: 675281 0.33764%
BRANCH_OTHER: 0 0%

DRAM PAGES: 1048576
Allocated PAGES: 9397
