
*** ChampSim Multicore Out-of-Order Simulator ***

Warmup Instructions: 50000000
Simulation Instructions: 200000000
Number of CPUs: 1
LLC sets: 2048
LLC ways: 16
L0D sets: 16
L0D ways: 2
ROB size: 352
LQ size: 128
SQ size: 72
Secure Berti: OFF
Berti: OFF
Berti Fill: OFF
On commit prefetching: OFF
Hit-based filter: OFF
Time-guarding: ON
Free-slotting: ON
Leap-frogging: ON
Train prefetcher on L0D bypass: OFF
No translation penalty for prefetchers: OFF
Prefetch to L0D only: OFF
Prefetch to L1D only: OFF
Clean evictions: ON
Commit loads: ON
Commit write: ON
Fill commit loads to L2C, LLC: ON
DRAM IO FREQUENCY: 6400
ROB SIZE: 352
Off-chip DRAM Size: 4096 MB Channels: 1 Width: 64-bit Data Rate: 6400 MT/s
CPU 0 runs /home/sumon/secure_berti/GhostMinion/../../traces/spec/649.fotonik3d_s-8225B.champsimtrace.xz
.xz
BTB has LRU replacement policy
ITLB has LRU replacement policy
DTLB has LRU replacement policy
STLB has LRU replacement policy
L1I has LRU replacement policy
L0D has LRU replacement policy
History Sets: 8
History Ways: 16
BERTI Size: 16
BERTI Stride Size: 16
L1D has LRU replacement policy
L2C has LRU replacement policy
LLC has LRU replacement policy
Heartbeat CPU 0 instructions: 10000000 cycles: 3140402 heartbeat IPC: 3.18431 cumulative IPC: 3.18431 (Simulation time: 0 hr 0 min 33 sec) 
Heartbeat CPU 0 instructions: 20000001 cycles: 6280802 heartbeat IPC: 3.18431 cumulative IPC: 3.18431 (Simulation time: 0 hr 1 min 5 sec) 
Heartbeat CPU 0 instructions: 30000000 cycles: 9421113 heartbeat IPC: 3.1844 cumulative IPC: 3.18434 (Simulation time: 0 hr 1 min 37 sec) 
Heartbeat CPU 0 instructions: 40000002 cycles: 12561497 heartbeat IPC: 3.18432 cumulative IPC: 3.18433 (Simulation time: 0 hr 2 min 9 sec) 
Heartbeat CPU 0 instructions: 50000001 cycles: 15701795 heartbeat IPC: 3.18441 cumulative IPC: 3.18435 (Simulation time: 0 hr 2 min 40 sec) 

Warmup complete CPU 0 instructions: 50000001 cycles: 15701795 (Simulation time: 0 hr 2 min 40 sec) 

Heartbeat CPU 0 instructions: 60000000 cycles: 25666615 heartbeat IPC: 1.00353 cumulative IPC: 1.00353 (Simulation time: 0 hr 3 min 16 sec) 
Heartbeat CPU 0 instructions: 70000001 cycles: 35632629 heartbeat IPC: 1.00341 cumulative IPC: 1.00347 (Simulation time: 0 hr 3 min 51 sec) 
Heartbeat CPU 0 instructions: 80000002 cycles: 45597641 heartbeat IPC: 1.00351 cumulative IPC: 1.00348 (Simulation time: 0 hr 4 min 25 sec) 
Heartbeat CPU 0 instructions: 90000003 cycles: 55565980 heartbeat IPC: 1.00318 cumulative IPC: 1.00341 (Simulation time: 0 hr 4 min 59 sec) 
Heartbeat CPU 0 instructions: 100000000 cycles: 65532234 heartbeat IPC: 1.00339 cumulative IPC: 1.0034 (Simulation time: 0 hr 5 min 34 sec) 
Heartbeat CPU 0 instructions: 110000000 cycles: 75500021 heartbeat IPC: 1.00323 cumulative IPC: 1.00337 (Simulation time: 0 hr 6 min 8 sec) 
Heartbeat CPU 0 instructions: 120000002 cycles: 85464149 heartbeat IPC: 1.0036 cumulative IPC: 1.00341 (Simulation time: 0 hr 6 min 42 sec) 
Heartbeat CPU 0 instructions: 130000003 cycles: 95430441 heartbeat IPC: 1.00338 cumulative IPC: 1.0034 (Simulation time: 0 hr 7 min 17 sec) 
Heartbeat CPU 0 instructions: 140000002 cycles: 105396442 heartbeat IPC: 1.00341 cumulative IPC: 1.0034 (Simulation time: 0 hr 7 min 52 sec) 
Heartbeat CPU 0 instructions: 150000003 cycles: 115363612 heartbeat IPC: 1.00329 cumulative IPC: 1.00339 (Simulation time: 0 hr 8 min 26 sec) 
Heartbeat CPU 0 instructions: 160000000 cycles: 125330691 heartbeat IPC: 1.0033 cumulative IPC: 1.00339 (Simulation time: 0 hr 9 min 1 sec) 
Heartbeat CPU 0 instructions: 170000001 cycles: 135305863 heartbeat IPC: 1.00249 cumulative IPC: 1.00331 (Simulation time: 0 hr 9 min 35 sec) 
Heartbeat CPU 0 instructions: 180000000 cycles: 145281230 heartbeat IPC: 1.00247 cumulative IPC: 1.00325 (Simulation time: 0 hr 10 min 10 sec) 
Heartbeat CPU 0 instructions: 190000001 cycles: 155255885 heartbeat IPC: 1.00254 cumulative IPC: 1.0032 (Simulation time: 0 hr 10 min 45 sec) 
Heartbeat CPU 0 instructions: 200000003 cycles: 165225599 heartbeat IPC: 1.00304 cumulative IPC: 1.00318 (Simulation time: 0 hr 11 min 20 sec) 
Heartbeat CPU 0 instructions: 210000000 cycles: 175201496 heartbeat IPC: 1.00242 cumulative IPC: 1.00314 (Simulation time: 0 hr 11 min 55 sec) 
Heartbeat CPU 0 instructions: 220000000 cycles: 185178622 heartbeat IPC: 1.00229 cumulative IPC: 1.00309 (Simulation time: 0 hr 12 min 29 sec) 
Heartbeat CPU 0 instructions: 230000000 cycles: 195154433 heartbeat IPC: 1.00242 cumulative IPC: 1.00305 (Simulation time: 0 hr 13 min 5 sec) 
Heartbeat CPU 0 instructions: 240000003 cycles: 205131741 heartbeat IPC: 1.00227 cumulative IPC: 1.00301 (Simulation time: 0 hr 13 min 40 sec) 
Heartbeat CPU 0 instructions: 250000000 cycles: 215105723 heartbeat IPC: 1.00261 cumulative IPC: 1.00299 (Simulation time: 0 hr 14 min 15 sec) 
Finished CPU 0 instructions: 200000003 cycles: 199403929 cumulative IPC: 1.00299 (Simulation time: 0 hr 14 min 15 sec) 
 Instruction ID: 250000051

ChampSim completed all CPUs

Region of Interest Statistics

CPU 0 cumulative IPC: 1.00299 instructions: 200000003 cycles: 199403929
ITLB SPEC fills:          0  NON-SPEC fills:          0
ITLB Test counter :          0
ITLB Leapfrog:          0
ITLB MSHR merge:          0
ITLB TOTAL     ACCESS:   28065622  HIT:   28065622  MISS:          0  HIT %:        100  MISS %:          0   MPKI: 0
ITLB LOAD TRANSLATION NON_SPEC    ACCESS:   28065622  HIT:   28065622  MISS:          0  HIT %:        100  MISS %:          0   MPKI: 0
ITLB PREFETCH  REQUESTED:          0  ISSUED:          0  USEFUL:          0  USELESS:          0
ITLB USEFUL LOAD PREFETCHES:          0 PREFETCH ISSUED TO LOWER LEVEL:          0  ACCURACY: -nan
ITLB TIMELY PREFETCHES:          0 LATE PREFETCHES: 0 DROPPED PREFETCHES: 0
ITLB COMMIT LATE PREFETCHES: 0 NORMAL LATE: 0 MISSED OPPORTUNITY: 0 UNCOVERED: 0
ITLB PREFETCHES SAME FILL-ORIGIN LEVEL: 0 DIFFERENT FILL-ORIGIN LEVEL: 0
ITLB AVERAGE MISS LATENCY: -nan cycles
ITLB AVERAGE MISS LATENCY LOAD: -nan cycles
ITLB AVERAGE MISS LATENCY PREFETCH: -nan cycles
ITLB AVERAGE MSHR OCCUPANCY: 0
ITLB MSHR FULL: 0
ITLB RQ	ACCESS:   35086353	FORWARD:          0	MERGED:    7020731	TO_CACHE:   28065622

DTLB SPEC fills:          0  NON-SPEC fills:          0
DTLB Test counter :          0
DTLB Leapfrog:          0
DTLB MSHR merge:          0
DTLB TOTAL     ACCESS:   37198131  HIT:   37151286  MISS:      46845  HIT %:    99.8741  MISS %:   0.125934   MPKI: 0.234225
DTLB LOAD TRANSLATION NON_SPEC    ACCESS:   37198131  HIT:   37151286  MISS:      46845  HIT %:    99.8741  MISS %:   0.125934   MPKI: 0.234225
DTLB PREFETCH  REQUESTED:          0  ISSUED:          0  USEFUL:          0  USELESS:          0
DTLB USEFUL LOAD PREFETCHES:          0 PREFETCH ISSUED TO LOWER LEVEL:          0  ACCURACY: -nan
DTLB TIMELY PREFETCHES:          0 LATE PREFETCHES: 0 DROPPED PREFETCHES: 0
DTLB COMMIT LATE PREFETCHES: 0 NORMAL LATE: 0 MISSED OPPORTUNITY: 0 UNCOVERED: 0
DTLB PREFETCHES SAME FILL-ORIGIN LEVEL: 0 DIFFERENT FILL-ORIGIN LEVEL: 0
DTLB AVERAGE MISS LATENCY: 114.65 cycles
DTLB AVERAGE MISS LATENCY LOAD: -nan cycles
DTLB AVERAGE MISS LATENCY PREFETCH: -nan cycles
DTLB AVERAGE MSHR OCCUPANCY: 0.00798192
DTLB MSHR FULL: 0
DTLB RQ	ACCESS:   58049977	FORWARD:          0	MERGED:   20846523	TO_CACHE:   37203454

STLB SPEC fills:          0  NON-SPEC fills:          0
STLB Test counter :          0
STLB Leapfrog:          0
STLB MSHR merge:          0
STLB TOTAL     ACCESS:    6226785  HIT:    6199330  MISS:      27455  HIT %:    99.5591  MISS %:   0.440918   MPKI: 0.137275
STLB LOAD TRANSLATION NON_SPEC    ACCESS:      46845  HIT:      19390  MISS:      27455  HIT %:    41.3918  MISS %:    58.6082   MPKI: 0.137275
STLB TRANSLATION FROM L1D PREFETCHER NON_SPEC    ACCESS:    6179940  HIT:    6179940  MISS:          0  HIT %:        100  MISS %:          0   MPKI: 0
STLB PREFETCH  REQUESTED:          0  ISSUED:          0  USEFUL:          0  USELESS:          0
STLB USEFUL LOAD PREFETCHES:          0 PREFETCH ISSUED TO LOWER LEVEL:          0  ACCURACY: -nan
STLB TIMELY PREFETCHES:          0 LATE PREFETCHES: 9379 DROPPED PREFETCHES: 1564507
STLB COMMIT LATE PREFETCHES: 0 NORMAL LATE: 9379 MISSED OPPORTUNITY: 0 UNCOVERED: 18446744073709542237
STLB PREFETCHES SAME FILL-ORIGIN LEVEL: 0 DIFFERENT FILL-ORIGIN LEVEL: 0
STLB AVERAGE MISS LATENCY: 182.947 cycles
STLB AVERAGE MISS LATENCY LOAD: -nan cycles
STLB AVERAGE MISS LATENCY PREFETCH: -nan cycles
STLB AVERAGE MSHR OCCUPANCY: 0.55555
STLB MSHR FULL: 0
STLB RQ	ACCESS:   41407521	FORWARD:          0	MERGED:   33399045	TO_CACHE:    8008476

STLB Hit, L1D data hit: 0
STLB Hit, L2C data hit: 0
STLB Hit, LLC data hit: 0
STLB Hit, LLC data miss: 0
STLB STLB hints to L2: 0
L0D SPEC fills:   28793557  NON-SPEC fills:          0
L0D TimeGuard Request with older TS:       7835 Restricted eviction:        339 read:     196227
L0D Test counter :          0
L0D Leapfrog:          0
L0D MSHR merge:    5758544
L0D TOTAL     ACCESS:   38250341  HIT:    3336963  MISS:   34913378  HIT %:    8.72401  MISS %:     91.276   MPKI: 174.567
L0D LOAD      TOTAL       ACCESS:   38250341  HIT:    3336963  MISS:   34913378  HIT %:    8.72401  MISS %:     91.276   MPKI: 174.567
L0D LOAD      NON_SPEC    ACCESS:    6133113  HIT:      13631  MISS:    6119482  HIT %:   0.222253  MISS %:    99.7777   MPKI: 30.5974
L0D LOAD      SPEC        ACCESS:   32117228  HIT:    3323332  MISS:   28793896  HIT %:    10.3475  MISS %:    89.6525   MPKI: 143.969
L0D PREFETCH  REQUESTED:          0  ISSUED:          0  USEFUL:          0  USELESS:          0
L0D USEFUL LOAD PREFETCHES:          0 PREFETCH ISSUED TO LOWER LEVEL:          0  ACCURACY: -nan
L0D TIMELY PREFETCHES:          0 LATE PREFETCHES: 0 DROPPED PREFETCHES: 0
L0D COMMIT LATE PREFETCHES: 0 NORMAL LATE: 0 MISSED OPPORTUNITY: 0 UNCOVERED: 34913378
L0D PREFETCHES SAME FILL-ORIGIN LEVEL: 0 DIFFERENT FILL-ORIGIN LEVEL: 0
L0D AVERAGE MISS LATENCY: 5.47959 cycles
L0D AVERAGE MISS LATENCY LOAD: 5.47959 cycles
L0D AVERAGE MISS LATENCY PREFETCH: -nan cycles
L0D AVERAGE MSHR OCCUPANCY: 1.24343
L0D MSHR FULL: 3.18118e-07
L0D RQ	ACCESS:   70166210	FORWARD:          0	MERGED:   26157329	TO_CACHE:   44008881
L0D WQ	ACCESS:   14041096	FORWARD:          0	MERGED:          0	TO_CACHE:   14041096

L1D SPEC fills:          0  NON-SPEC fills:      27106
L1D Test counter :          0
L1D Leapfrog:          0
L1D MSHR merge:      22515
L1D TOTAL     ACCESS:  140952275  HIT:  138249622  MISS:    2702653  HIT %:    98.0826  MISS %:    1.91742   MPKI: 13.5133
L1D LOAD      TOTAL       ACCESS:   34912793  HIT:   34845715  MISS:      67078  HIT %:    99.8079  MISS %:    0.19213   MPKI: 0.33539
L1D LOAD      NON_SPEC    ACCESS:    6119479  HIT:    6092373  MISS:      27106  HIT %:    99.5571  MISS %:   0.442946   MPKI: 0.13553
L1D LOAD      SPEC        ACCESS:   28793314  HIT:   28753342  MISS:      39972  HIT %:    99.8612  MISS %:   0.138824   MPKI: 0.19986
L1D RFO       NON_SPEC    ACCESS:   13778789  HIT:   13775933  MISS:       2856  HIT %:    99.9793  MISS %:  0.0207275   MPKI: 0.01428
L1D PREFETCH  NON_SPEC    ACCESS:   34857380  HIT:   32264924  MISS:    2592456  HIT %:    92.5627  MISS %:    7.43732   MPKI: 12.9623
L1D COMMIT LOAD NON_SPEC    ACCESS:   28616564  HIT:   28615924  MISS:        640  HIT %:    99.9978  MISS %: 0.00223647   MPKI: 0.0032
L1D COMMIT WRITE NON_SPEC    ACCESS:   28786749  HIT:   28747126  MISS:      39623  HIT %:    99.8624  MISS %:   0.137643   MPKI: 0.198115
L1D PREFETCH  REQUESTED:   57488697  ISSUED:   45047653  USEFUL:    2577478  USELESS:      14971
L1D USEFUL LOAD PREFETCHES:    2577478 PREFETCH ISSUED TO LOWER LEVEL:    5538827  ACCURACY: 46.5347
L1D TIMELY PREFETCHES:    2577478 LATE PREFETCHES: 21931 DROPPED PREFETCHES: 2881389
L1D COMMIT LATE PREFETCHES: 0 NORMAL LATE: 21931 MISSED OPPORTUNITY: 0 UNCOVERED: 45147
L1D PREFETCHES SAME FILL-ORIGIN LEVEL: 2614387 DIFFERENT FILL-ORIGIN LEVEL: 2924440
L1D AVERAGE MISS LATENCY: 68.0524 cycles
L1D AVERAGE MISS LATENCY LOAD: 148.22 cycles
L1D AVERAGE MISS LATENCY PREFETCH: 67.0775 cycles
L1D AVERAGE MSHR OCCUPANCY: 0.712777
L1D MSHR FULL: 0
L1D RQ	ACCESS:   66764418	FORWARD:          0	MERGED:    3135328	TO_CACHE:   63530004
L1D WQ	ACCESS:   42827995	FORWARD:      99086	MERGED:     255490	TO_CACHE:   42572505
L1D PQ	ACCESS:   45047653	FORWARD:          0	MERGED:    3686977	TO_CACHE:   41360676

L1D UNIQUE REGIONS ACCESSED: 0
L1D REGIONS CONFLICTS: 0
L1D Cross Page Prefetch Requests: 6206392
L1D Same Page Prefetch Requests: 48385623
L1D ROI Sum of L1D PQ occupancy: 1564192519
L1D PREFETCHES PUSHED FROM L2C: 0
L1I SPEC fills:          0  NON-SPEC fills:          0
L1I Test counter :          0
L1I Leapfrog:          0
L1I MSHR merge:          0
L1I TOTAL     ACCESS:   35086352  HIT:   35086352  MISS:          0  HIT %:        100  MISS %:          0   MPKI: 0
L1I LOAD      TOTAL       ACCESS:   35086352  HIT:   35086352  MISS:          0  HIT %:        100  MISS %:          0   MPKI: 0
L1I LOAD      NON_SPEC    ACCESS:   35086352  HIT:   35086352  MISS:          0  HIT %:        100  MISS %:          0   MPKI: 0
L1I PREFETCH  REQUESTED:          0  ISSUED:          0  USEFUL:          0  USELESS:          0
L1I USEFUL LOAD PREFETCHES:          0 PREFETCH ISSUED TO LOWER LEVEL:          0  ACCURACY: -nan
L1I TIMELY PREFETCHES:          0 LATE PREFETCHES: 0 DROPPED PREFETCHES: 0
L1I COMMIT LATE PREFETCHES: 0 NORMAL LATE: 0 MISSED OPPORTUNITY: 0 UNCOVERED: 0
L1I PREFETCHES SAME FILL-ORIGIN LEVEL: 0 DIFFERENT FILL-ORIGIN LEVEL: 0
L1I AVERAGE MISS LATENCY: -nan cycles
L1I AVERAGE MISS LATENCY LOAD: -nan cycles
L1I AVERAGE MISS LATENCY PREFETCH: -nan cycles
L1I AVERAGE MSHR OCCUPANCY: 0
L1I MSHR FULL: 0
L1I RQ	ACCESS:   45632548	FORWARD:          0	MERGED:   10546195	TO_CACHE:   35086353

BTB SPEC fills:          0  NON-SPEC fills:          0
BTB Test counter :          0
BTB Leapfrog:          0
BTB MSHR merge:          0
BTB TOTAL     ACCESS:    3509173  HIT:    3509164  MISS:          9  HIT %:    99.9997  MISS %: 0.000256471   MPKI: 4.5e-05
BTB BRANCH_DIRECT_JUMP	ACCESS:        876  HIT:        874  MISS:          2
BTB BRANCH_INDIRECT	ACCESS:          0  HIT:          0  MISS:          0
BTB BRANCH_CONDITIONAL	ACCESS:    3506545  HIT:    3506542  MISS:          3
BTB BRANCH_DIRECT_CALL	ACCESS:        876  HIT:        874  MISS:          2
BTB BRANCH_INDIRECT_CALL	ACCESS:          0  HIT:          0  MISS:          0
BTB BRANCH_RETURN	ACCESS:        876  HIT:        874  MISS:          2
BTB BRANCH_OTHER ACCESS:          0  HIT:          0  MISS:          0

L2C SPEC fills:          0  NON-SPEC fills:      17737
L2C Test counter :          0
L2C Leapfrog:          0
L2C MSHR merge:        563
L2C TOTAL     ACCESS:   15605005  HIT:   13817728  MISS:    1787277  HIT %:    88.5468  MISS %:    11.4532   MPKI: 8.93638
L2C LOAD      TOTAL       ACCESS:      45147  HIT:      15285  MISS:      29862  HIT %:    33.8561  MISS %:    66.1439   MPKI: 0.14931
L2C LOAD      NON_SPEC    ACCESS:      21953  HIT:       4216  MISS:      17737  HIT %:    19.2047  MISS %:    80.7953   MPKI: 0.088685
L2C LOAD      SPEC        ACCESS:      23194  HIT:      11069  MISS:      12125  HIT %:    47.7235  MISS %:    52.2765   MPKI: 0.060625
L2C RFO       NON_SPEC    ACCESS:       2856  HIT:       1806  MISS:       1050  HIT %:    63.2353  MISS %:    36.7647   MPKI: 0.00525
L2C PREFETCH  NON_SPEC    ACCESS:    4995508  HIT:    3256906  MISS:    1738602  HIT %:    65.1967  MISS %:    34.8033   MPKI: 8.69301
L2C WRITEBACK NON_SPEC    ACCESS:    1310988  HIT:    1310988  MISS:          0  HIT %:        100  MISS %:          0   MPKI: 0
L2C CLEAN_EVICTION NON_SPEC    ACCESS:    1334025  HIT:    1321448  MISS:      12577  HIT %:    99.0572  MISS %:   0.942786   MPKI: 0.062885
L2C COMMIT LOAD NON_SPEC    ACCESS:        640  HIT:        632  MISS:          8  HIT %:      98.75  MISS %:       1.25   MPKI: 4e-05
L2C LOAD TRANSLATION NON_SPEC    ACCESS:     137186  HIT:     137097  MISS:         89  HIT %:    99.9351  MISS %:  0.0648754   MPKI: 0.000445
L2C TRANSLATION FROM L1D PREFETCHER NON_SPEC    ACCESS:    7778655  HIT:    7773566  MISS:       5089  HIT %:    99.9346  MISS %:  0.0654226   MPKI: 0.025445
L2C PREFETCH  REQUESTED:          0  ISSUED:          0  USEFUL:       7888  USELESS:    1733714
L2C USEFUL LOAD PREFETCHES:       7888 PREFETCH ISSUED TO LOWER LEVEL:    1739166  ACCURACY: 0.453551
L2C TIMELY PREFETCHES:       7888 LATE PREFETCHES: 563 DROPPED PREFETCHES: 0
L2C COMMIT LATE PREFETCHES: 0 NORMAL LATE: 563 MISSED OPPORTUNITY: 0 UNCOVERED: 29299
L2C PREFETCHES SAME FILL-ORIGIN LEVEL: 1054998 DIFFERENT FILL-ORIGIN LEVEL: 0
L2C AVERAGE MISS LATENCY: 186.168 cycles
L2C AVERAGE MISS LATENCY LOAD: 184.008 cycles
L2C AVERAGE MISS LATENCY PREFETCH: 187.746 cycles
L2C AVERAGE MSHR OCCUPANCY: 1.1524
L2C MSHR FULL: 0
L2C RQ	ACCESS:    7964484	FORWARD:          0	MERGED:          0	TO_CACHE:    7964484
L2C WQ	ACCESS:    2645013	FORWARD:          0	MERGED:          0	TO_CACHE:    2645013
L2C PQ	ACCESS:    5538827	FORWARD:          0	MERGED:          0	TO_CACHE:    5538827

L2C Instructions Evicting Data 0
L2C Translations Evicting Data 5177
L2C Data Evicting Data 1752257
L2C Instructions Evicting Instructions 0
L2C Translations Evicting Instructions 0
L2C Data Evicting Instructions 0
L2C Instructions Evicting Translations 0
L2C Translations Evicting Translations 1
L2C Data Evicting Translations 5140
L2C Dense regions hint from L2: 0
PSCL5 SPEC fills:          0  NON-SPEC fills:          0
PSCL5 Test counter :          0
PSCL5 Leapfrog:          0
PSCL5 MSHR merge:          0
PSCL5 TOTAL     ACCESS:          0  HIT:          0  MISS:          0  HIT %:       -nan  MISS %:       -nan   MPKI: 0
PSCL5 PREFETCH  REQUESTED:          0  ISSUED:          0  USEFUL:          0  USELESS:          0
PSCL5 USEFUL LOAD PREFETCHES:          0 PREFETCH ISSUED TO LOWER LEVEL:          0  ACCURACY: -nan
PSCL5 TIMELY PREFETCHES:          0 LATE PREFETCHES: 0 DROPPED PREFETCHES: 0
PSCL5 COMMIT LATE PREFETCHES: 0 NORMAL LATE: 0 MISSED OPPORTUNITY: 0 UNCOVERED: 0
PSCL5 PREFETCHES SAME FILL-ORIGIN LEVEL: 0 DIFFERENT FILL-ORIGIN LEVEL: 0

PSCL4 SPEC fills:          0  NON-SPEC fills:          0
PSCL4 Test counter :          0
PSCL4 Leapfrog:          0
PSCL4 MSHR merge:          0
PSCL4 TOTAL     ACCESS:          0  HIT:          0  MISS:          0  HIT %:       -nan  MISS %:       -nan   MPKI: 0
PSCL4 PREFETCH  REQUESTED:          0  ISSUED:          0  USEFUL:          0  USELESS:          0
PSCL4 USEFUL LOAD PREFETCHES:          0 PREFETCH ISSUED TO LOWER LEVEL:          0  ACCURACY: -nan
PSCL4 TIMELY PREFETCHES:          0 LATE PREFETCHES: 0 DROPPED PREFETCHES: 0
PSCL4 COMMIT LATE PREFETCHES: 0 NORMAL LATE: 0 MISSED OPPORTUNITY: 0 UNCOVERED: 0
PSCL4 PREFETCHES SAME FILL-ORIGIN LEVEL: 0 DIFFERENT FILL-ORIGIN LEVEL: 0

PSCL3 SPEC fills:          0  NON-SPEC fills:          0
PSCL3 Test counter :          0
PSCL3 Leapfrog:          0
PSCL3 MSHR merge:          0
PSCL3 TOTAL     ACCESS:          0  HIT:          0  MISS:          0  HIT %:       -nan  MISS %:       -nan   MPKI: 0
PSCL3 PREFETCH  REQUESTED:          0  ISSUED:          0  USEFUL:          0  USELESS:          0
PSCL3 USEFUL LOAD PREFETCHES:          0 PREFETCH ISSUED TO LOWER LEVEL:          0  ACCURACY: -nan
PSCL3 TIMELY PREFETCHES:          0 LATE PREFETCHES: 0 DROPPED PREFETCHES: 0
PSCL3 COMMIT LATE PREFETCHES: 0 NORMAL LATE: 0 MISSED OPPORTUNITY: 0 UNCOVERED: 0
PSCL3 PREFETCHES SAME FILL-ORIGIN LEVEL: 0 DIFFERENT FILL-ORIGIN LEVEL: 0

PSCL2 SPEC fills:          0  NON-SPEC fills:          0
PSCL2 Test counter :          0
PSCL2 Leapfrog:          0
PSCL2 MSHR merge:          0
PSCL2 TOTAL     ACCESS:          0  HIT:          0  MISS:          0  HIT %:       -nan  MISS %:       -nan   MPKI: 0
PSCL2 PREFETCH  REQUESTED:          0  ISSUED:          0  USEFUL:          0  USELESS:          0
PSCL2 USEFUL LOAD PREFETCHES:          0 PREFETCH ISSUED TO LOWER LEVEL:          0  ACCURACY: -nan
PSCL2 TIMELY PREFETCHES:          0 LATE PREFETCHES: 0 DROPPED PREFETCHES: 0
PSCL2 COMMIT LATE PREFETCHES: 0 NORMAL LATE: 0 MISSED OPPORTUNITY: 0 UNCOVERED: 0
PSCL2 PREFETCHES SAME FILL-ORIGIN LEVEL: 0 DIFFERENT FILL-ORIGIN LEVEL: 0

LLC SPEC fills:          0  NON-SPEC fills:      17290
LLC Test counter :          0
LLC Leapfrog:          0
LLC MSHR merge:          0
LLC TOTAL     ACCESS:    3543668  HIT:    1770232  MISS:    1773436  HIT %:    49.9548  MISS %:    50.0452   MPKI: 8.86718
LLC LOAD      TOTAL       ACCESS:      29298  HIT:       1167  MISS:      28131  HIT %:    3.98321  MISS %:    96.0168   MPKI: 0.140655
LLC LOAD      NON_SPEC    ACCESS:      17610  HIT:        320  MISS:      17290  HIT %:    1.81715  MISS %:    98.1829   MPKI: 0.08645
LLC LOAD      SPEC        ACCESS:      11688  HIT:        847  MISS:      10841  HIT %:    7.24675  MISS %:    92.7533   MPKI: 0.054205
LLC RFO       NON_SPEC    ACCESS:       1050  HIT:       1050  MISS:          0  HIT %:        100  MISS %:          0   MPKI: 0
LLC PREFETCH  NON_SPEC    ACCESS:    1739161  HIT:      13273  MISS:    1725888  HIT %:   0.763184  MISS %:    99.2368   MPKI: 8.62944
LLC WRITEBACK NON_SPEC    ACCESS:    1305041  HIT:    1305038  MISS:          3  HIT %:    99.9998  MISS %: 0.000229878   MPKI: 1.5e-05
LLC CLEAN_EVICTION NON_SPEC    ACCESS:     463932  HIT:     448119  MISS:      15813  HIT %:    96.5915  MISS %:    3.40847   MPKI: 0.079065
LLC COMMIT LOAD NON_SPEC    ACCESS:          8  HIT:          8  MISS:          0  HIT %:        100  MISS %:          0   MPKI: 0
LLC LOAD TRANSLATION NON_SPEC    ACCESS:         89  HIT:          6  MISS:         83  HIT %:    6.74157  MISS %:    93.2584   MPKI: 0.000415
LLC TRANSLATION FROM L1D PREFETCHER NON_SPEC    ACCESS:       5089  HIT:       1571  MISS:       3518  HIT %:    30.8705  MISS %:    69.1295   MPKI: 0.01759
LLC PREFETCH  REQUESTED:          0  ISSUED:          0  USEFUL:       1760  USELESS:    1727490
LLC USEFUL LOAD PREFETCHES:       1760 PREFETCH ISSUED TO LOWER LEVEL:    1725889  ACCURACY: 0.101976
LLC TIMELY PREFETCHES:       1760 LATE PREFETCHES: 0 DROPPED PREFETCHES: 0
LLC COMMIT LATE PREFETCHES: 0 NORMAL LATE: 0 MISSED OPPORTUNITY: 0 UNCOVERED: 28131
LLC PREFETCHES SAME FILL-ORIGIN LEVEL: 0 DIFFERENT FILL-ORIGIN LEVEL: 0
LLC AVERAGE MISS LATENCY: 157.666 cycles
LLC AVERAGE MISS LATENCY LOAD: 164.686 cycles
LLC AVERAGE MISS LATENCY PREFETCH: 158.956 cycles
LLC AVERAGE MSHR OCCUPANCY: 0.60542
LLC MSHR FULL: 0
LLC RQ	ACCESS:      35535	FORWARD:          0	MERGED:          0	TO_CACHE:      35534
LLC WQ	ACCESS:    1768973	FORWARD:          5	MERGED:          0	TO_CACHE:    1768973
LLC PQ	ACCESS:    1739166	FORWARD:          0	MERGED:          0	TO_CACHE:    1739162

LLC Dense regions hint to LLC: 0

RAW hits: 2883
Loads Generated: 70169100
Loads sent to L1D: 70166210
Stores Generated: 14041094
Stores sent to L1D: 14041096
Major fault: 0 Minor fault: 34487
Allocated PAGES: 34487
Total Load insts: 87707357
Total Non-spec loads: 10856475
Percentage of speculative loads: 87.6219

LeapFrogging counter: 0
Commit hits: 28786897 miss: 31851043
Commit hit %: 47.4734 miss %: 52.5266
Commits not translated: 0
Loads retired: 67078
Stores retired: 14041096
Cache fills: 67078
L1D response latency: 148.22 cycles
Load retirement latency: 261.25 cycles
OOO test counter: 0
Discarded buffer inserts: 28786897 hits: 648 hit %: 0.00225102
Filter prediction accuracy: -nan
LATENCY_FILL: 145.549 67483

DRAM Statistics
 CHANNEL 0
 RQ ROW_BUFFER_HIT:     434648  ROW_BUFFER_MISS:    1322973
 DBUS_CONGESTED:       3270
 WQ ROW_BUFFER_HIT:     778885  ROW_BUFFER_MISS:     979616  FULL:          0

 AVG_CONGESTED_CYCLE: 5
 All warmup complete: 2
Channel 0 Bank busy for read cycles: 0
Channel 0 Bank busy for write cycles: 0
Channel 0
Rank 0
0banks busy for read cycles: 39067674
0banks busy for write cycles: 57855
1banks busy for read cycles: 55688039
1banks busy for write cycles: 5274265
2banks busy for read cycles: 27914600
2banks busy for write cycles: 3286954
3banks busy for read cycles: 10591574
3banks busy for write cycles: 2565192
4banks busy for read cycles: 4958351
4banks busy for write cycles: 2444820
5banks busy for read cycles: 2320081
5banks busy for write cycles: 2522027
6banks busy for read cycles: 1532152
6banks busy for write cycles: 2932211
7banks busy for read cycles: 906801
7banks busy for write cycles: 5056732
8banks busy for read cycles: 3743283
8banks busy for write cycles: 28541319

CPU 0 Branch Prediction Accuracy: 99.9751% MPKI: 0.00438 Average ROB Occupancy at Mispredict: 47.992
Branch types
NOT_BRANCH: 196487432 98.2437%
BRANCH_DIRECT_JUMP: 876 0.000438%
BRANCH_INDIRECT: 0 0%
BRANCH_CONDITIONAL: 3509611 1.75481%
BRANCH_DIRECT_CALL: 876 0.000438%
BRANCH_INDIRECT_CALL: 0 0%
BRANCH_RETURN: 876 0.000438%
BRANCH_OTHER: 0 0%

DRAM PAGES: 1048576
Allocated PAGES: 34487
