
*** ChampSim Multicore Out-of-Order Simulator ***

Warmup Instructions: 50000000
Simulation Instructions: 200000000
Number of CPUs: 1
LLC sets: 2048
LLC ways: 16
L0D sets: 16
L0D ways: 2
ROB size: 352
LQ size: 128
SQ size: 72
Secure Berti: OFF
Berti: OFF
Berti Fill: OFF
On commit prefetching: OFF
Hit-based filter: OFF
Time-guarding: ON
Free-slotting: ON
Leap-frogging: ON
Train prefetcher on L0D bypass: OFF
No translation penalty for prefetchers: OFF
Prefetch to L0D only: OFF
Prefetch to L1D only: OFF
Clean evictions: ON
Commit loads: ON
Commit write: ON
Fill commit loads to L2C, LLC: ON
DRAM IO FREQUENCY: 6400
ROB SIZE: 352
Off-chip DRAM Size: 4096 MB Channels: 1 Width: 64-bit Data Rate: 6400 MT/s
CPU 0 runs /home/sumon/secure_berti/GhostMinion/../../traces/spec/649.fotonik3d_s-7084B.champsimtrace.xz
.xz
BTB has LRU replacement policy
ITLB has LRU replacement policy
DTLB has LRU replacement policy
STLB has LRU replacement policy
L1I has LRU replacement policy
L0D has LRU replacement policy
History Sets: 8
History Ways: 16
BERTI Size: 16
BERTI Stride Size: 16
L1D has LRU replacement policy
L2C has LRU replacement policy
LLC has LRU replacement policy
Heartbeat CPU 0 instructions: 10000001 cycles: 3120365 heartbeat IPC: 3.20475 cumulative IPC: 3.20475 (Simulation time: 0 hr 0 min 40 sec) 
Heartbeat CPU 0 instructions: 20000001 cycles: 6241214 heartbeat IPC: 3.20426 cumulative IPC: 3.2045 (Simulation time: 0 hr 1 min 20 sec) 
Heartbeat CPU 0 instructions: 30000001 cycles: 9361478 heartbeat IPC: 3.20486 cumulative IPC: 3.20462 (Simulation time: 0 hr 2 min 1 sec) 
Heartbeat CPU 0 instructions: 40000003 cycles: 12480906 heartbeat IPC: 3.20572 cumulative IPC: 3.2049 (Simulation time: 0 hr 2 min 42 sec) 
Heartbeat CPU 0 instructions: 50000002 cycles: 15602678 heartbeat IPC: 3.20331 cumulative IPC: 3.20458 (Simulation time: 0 hr 3 min 23 sec) 

Warmup complete CPU 0 instructions: 50000002 cycles: 15602678 (Simulation time: 0 hr 3 min 23 sec) 

Heartbeat CPU 0 instructions: 60000001 cycles: 26078920 heartbeat IPC: 0.954541 cumulative IPC: 0.954541 (Simulation time: 0 hr 4 min 18 sec) 
Heartbeat CPU 0 instructions: 70000002 cycles: 36540241 heartbeat IPC: 0.955902 cumulative IPC: 0.955221 (Simulation time: 0 hr 5 min 14 sec) 
Heartbeat CPU 0 instructions: 80000003 cycles: 46983731 heartbeat IPC: 0.957534 cumulative IPC: 0.955991 (Simulation time: 0 hr 6 min 10 sec) 
Heartbeat CPU 0 instructions: 90000001 cycles: 57455607 heartbeat IPC: 0.954939 cumulative IPC: 0.955728 (Simulation time: 0 hr 7 min 6 sec) 
Heartbeat CPU 0 instructions: 100000001 cycles: 67948582 heartbeat IPC: 0.953019 cumulative IPC: 0.955185 (Simulation time: 0 hr 8 min 4 sec) 
Heartbeat CPU 0 instructions: 110000000 cycles: 78420555 heartbeat IPC: 0.95493 cumulative IPC: 0.955142 (Simulation time: 0 hr 9 min 1 sec) 
Heartbeat CPU 0 instructions: 120000000 cycles: 88878323 heartbeat IPC: 0.956227 cumulative IPC: 0.955297 (Simulation time: 0 hr 9 min 58 sec) 
Heartbeat CPU 0 instructions: 130000003 cycles: 99337661 heartbeat IPC: 0.956084 cumulative IPC: 0.955395 (Simulation time: 0 hr 10 min 56 sec) 
Heartbeat CPU 0 instructions: 140000002 cycles: 109831085 heartbeat IPC: 0.952978 cumulative IPC: 0.955126 (Simulation time: 0 hr 11 min 54 sec) 
Heartbeat CPU 0 instructions: 150000001 cycles: 120304065 heartbeat IPC: 0.954838 cumulative IPC: 0.955097 (Simulation time: 0 hr 12 min 53 sec) 
Heartbeat CPU 0 instructions: 160000001 cycles: 130774802 heartbeat IPC: 0.955043 cumulative IPC: 0.955092 (Simulation time: 0 hr 13 min 52 sec) 
Heartbeat CPU 0 instructions: 170000000 cycles: 141244593 heartbeat IPC: 0.955129 cumulative IPC: 0.955095 (Simulation time: 0 hr 14 min 51 sec) 
Heartbeat CPU 0 instructions: 180000001 cycles: 151679995 heartbeat IPC: 0.958277 cumulative IPC: 0.955339 (Simulation time: 0 hr 15 min 50 sec) 
Heartbeat CPU 0 instructions: 190000001 cycles: 162133638 heartbeat IPC: 0.956604 cumulative IPC: 0.955429 (Simulation time: 0 hr 16 min 48 sec) 
Heartbeat CPU 0 instructions: 200000001 cycles: 172606662 heartbeat IPC: 0.954834 cumulative IPC: 0.95539 (Simulation time: 0 hr 17 min 46 sec) 
Heartbeat CPU 0 instructions: 210000003 cycles: 183088590 heartbeat IPC: 0.954023 cumulative IPC: 0.955304 (Simulation time: 0 hr 18 min 40 sec) 
Heartbeat CPU 0 instructions: 220000000 cycles: 193588488 heartbeat IPC: 0.95239 cumulative IPC: 0.955132 (Simulation time: 0 hr 19 min 31 sec) 
Heartbeat CPU 0 instructions: 230000001 cycles: 204071186 heartbeat IPC: 0.953953 cumulative IPC: 0.955067 (Simulation time: 0 hr 20 min 20 sec) 
Heartbeat CPU 0 instructions: 240000002 cycles: 214534622 heartbeat IPC: 0.955709 cumulative IPC: 0.9551 (Simulation time: 0 hr 21 min 7 sec) 
Heartbeat CPU 0 instructions: 250000002 cycles: 224999442 heartbeat IPC: 0.955583 cumulative IPC: 0.955125 (Simulation time: 0 hr 21 min 52 sec) 
Finished CPU 0 instructions: 200000000 cycles: 209396764 cumulative IPC: 0.955125 (Simulation time: 0 hr 21 min 52 sec) 
 Instruction ID: 250000161

ChampSim completed all CPUs

Region of Interest Statistics

CPU 0 cumulative IPC: 0.955125 instructions: 200000000 cycles: 209396764
ITLB SPEC fills:          0  NON-SPEC fills:          0
ITLB Test counter :          0
ITLB Leapfrog:          0
ITLB MSHR merge:          0
ITLB TOTAL     ACCESS:   24352678  HIT:   24352678  MISS:          0  HIT %:        100  MISS %:          0   MPKI: 0
ITLB LOAD TRANSLATION NON_SPEC    ACCESS:   24352678  HIT:   24352678  MISS:          0  HIT %:        100  MISS %:          0   MPKI: 0
ITLB PREFETCH  REQUESTED:          0  ISSUED:          0  USEFUL:          0  USELESS:          0
ITLB USEFUL LOAD PREFETCHES:          0 PREFETCH ISSUED TO LOWER LEVEL:          0  ACCURACY: -nan
ITLB TIMELY PREFETCHES:          0 LATE PREFETCHES: 0 DROPPED PREFETCHES: 0
ITLB COMMIT LATE PREFETCHES: 0 NORMAL LATE: 0 MISSED OPPORTUNITY: 0 UNCOVERED: 0
ITLB PREFETCHES SAME FILL-ORIGIN LEVEL: 0 DIFFERENT FILL-ORIGIN LEVEL: 0
ITLB AVERAGE MISS LATENCY: -nan cycles
ITLB AVERAGE MISS LATENCY LOAD: -nan cycles
ITLB AVERAGE MISS LATENCY PREFETCH: -nan cycles
ITLB AVERAGE MSHR OCCUPANCY: 0
ITLB MSHR FULL: 0
ITLB RQ	ACCESS:   29758500	FORWARD:          0	MERGED:    5405822	TO_CACHE:   24352678

DTLB SPEC fills:          0  NON-SPEC fills:          0
DTLB Test counter :          0
DTLB Leapfrog:          0
DTLB MSHR merge:          0
DTLB TOTAL     ACCESS:   62623562  HIT:   62499809  MISS:     123753  HIT %:    99.8024  MISS %:   0.197614   MPKI: 0.618765
DTLB LOAD TRANSLATION NON_SPEC    ACCESS:   62623562  HIT:   62499809  MISS:     123753  HIT %:    99.8024  MISS %:   0.197614   MPKI: 0.618765
DTLB PREFETCH  REQUESTED:          0  ISSUED:          0  USEFUL:          0  USELESS:          0
DTLB USEFUL LOAD PREFETCHES:          0 PREFETCH ISSUED TO LOWER LEVEL:          0  ACCURACY: -nan
DTLB TIMELY PREFETCHES:          0 LATE PREFETCHES: 0 DROPPED PREFETCHES: 0
DTLB COMMIT LATE PREFETCHES: 0 NORMAL LATE: 0 MISSED OPPORTUNITY: 0 UNCOVERED: 0
DTLB PREFETCHES SAME FILL-ORIGIN LEVEL: 0 DIFFERENT FILL-ORIGIN LEVEL: 0
DTLB AVERAGE MISS LATENCY: 78.0959 cycles
DTLB AVERAGE MISS LATENCY LOAD: -nan cycles
DTLB AVERAGE MISS LATENCY PREFETCH: -nan cycles
DTLB AVERAGE MSHR OCCUPANCY: 0.0178096
DTLB MSHR FULL: 7.95139e-05
DTLB RQ	ACCESS:   70661224	FORWARD:          0	MERGED:    8035616	TO_CACHE:   62625608

STLB SPEC fills:          0  NON-SPEC fills:          0
STLB Test counter :          0
STLB Leapfrog:          0
STLB MSHR merge:          0
STLB TOTAL     ACCESS:   12947262  HIT:   12892648  MISS:      54614  HIT %:    99.5782  MISS %:   0.421819   MPKI: 0.27307
STLB LOAD TRANSLATION NON_SPEC    ACCESS:     123753  HIT:      80500  MISS:      43253  HIT %:    65.0489  MISS %:    34.9511   MPKI: 0.216265
STLB TRANSLATION FROM L1D PREFETCHER NON_SPEC    ACCESS:   12823509  HIT:   12812148  MISS:      11361  HIT %:    99.9114  MISS %:  0.0885951   MPKI: 0.056805
STLB PREFETCH  REQUESTED:          0  ISSUED:          0  USEFUL:      11360  USELESS:          0
STLB USEFUL LOAD PREFETCHES:      11360 PREFETCH ISSUED TO LOWER LEVEL:          0  ACCURACY: inf
STLB TIMELY PREFETCHES:      11360 LATE PREFETCHES: 2369 DROPPED PREFETCHES: 823266
STLB COMMIT LATE PREFETCHES: 0 NORMAL LATE: 2369 MISSED OPPORTUNITY: 0 UNCOVERED: 18446744073709549247
STLB PREFETCHES SAME FILL-ORIGIN LEVEL: 0 DIFFERENT FILL-ORIGIN LEVEL: 0
STLB AVERAGE MISS LATENCY: 179.116 cycles
STLB AVERAGE MISS LATENCY LOAD: -nan cycles
STLB AVERAGE MISS LATENCY PREFETCH: -nan cycles
STLB AVERAGE MSHR OCCUPANCY: 0.186129
STLB MSHR FULL: 0
STLB RQ	ACCESS:   66181362	FORWARD:          0	MERGED:   52406294	TO_CACHE:   13775068

STLB Hit, L1D data hit: 0
STLB Hit, L2C data hit: 0
STLB Hit, LLC data hit: 0
STLB Hit, LLC data miss: 0
STLB STLB hints to L2: 0
L0D SPEC fills:   39233144  NON-SPEC fills:          0
L0D TimeGuard Request with older TS:     391729 Restricted eviction:     601956 read:     226709
L0D Test counter :          0
L0D Leapfrog:          0
L0D MSHR merge:     844281
L0D TOTAL     ACCESS:   59982505  HIT:   14071623  MISS:   45910882  HIT %:    23.4595  MISS %:    76.5405   MPKI: 229.554
L0D LOAD      TOTAL       ACCESS:   59982505  HIT:   14071623  MISS:   45910882  HIT %:    23.4595  MISS %:    76.5405   MPKI: 229.554
L0D LOAD      NON_SPEC    ACCESS:    6702274  HIT:     626381  MISS:    6075893  HIT %:     9.3458  MISS %:    90.6542   MPKI: 30.3795
L0D LOAD      SPEC        ACCESS:   53280231  HIT:   13445242  MISS:   39834989  HIT %:     25.235  MISS %:     74.765   MPKI: 199.175
L0D PREFETCH  REQUESTED:          0  ISSUED:          0  USEFUL:          0  USELESS:          0
L0D USEFUL LOAD PREFETCHES:          0 PREFETCH ISSUED TO LOWER LEVEL:          0  ACCURACY: -nan
L0D TIMELY PREFETCHES:          0 LATE PREFETCHES: 0 DROPPED PREFETCHES: 0
L0D COMMIT LATE PREFETCHES: 0 NORMAL LATE: 0 MISSED OPPORTUNITY: 0 UNCOVERED: 45910882
L0D PREFETCHES SAME FILL-ORIGIN LEVEL: 0 DIFFERENT FILL-ORIGIN LEVEL: 0
L0D AVERAGE MISS LATENCY: 5.93081 cycles
L0D AVERAGE MISS LATENCY LOAD: 5.93081 cycles
L0D AVERAGE MISS LATENCY PREFETCH: -nan cycles
L0D AVERAGE MSHR OCCUPANCY: 1.17744
L0D MSHR FULL: 0.000108412
L0D RQ	ACCESS:   70254989	FORWARD:          0	MERGED:    9428207	TO_CACHE:   60826782
L0D WQ	ACCESS:    9834442	FORWARD:          0	MERGED:          0	TO_CACHE:    9834442

L1D SPEC fills:          0  NON-SPEC fills:      20236
L1D Test counter :          0
L1D Leapfrog:          0
L1D MSHR merge:      46307
L1D TOTAL     ACCESS:  165778482  HIT:  162131330  MISS:    3647152  HIT %:       97.8  MISS %:    2.20002   MPKI: 18.2358
L1D LOAD      TOTAL       ACCESS:   45910531  HIT:   45741692  MISS:     168839  HIT %:    99.6322  MISS %:   0.367757   MPKI: 0.844195
L1D LOAD      NON_SPEC    ACCESS:    6075891  HIT:    6055655  MISS:      20236  HIT %:    99.6669  MISS %:   0.333054   MPKI: 0.10118
L1D LOAD      SPEC        ACCESS:   39834640  HIT:   39686037  MISS:     148603  HIT %:     99.627  MISS %:    0.37305   MPKI: 0.743015
L1D RFO       NON_SPEC    ACCESS:    9768657  HIT:    9768657  MISS:          0  HIT %:        100  MISS %:          0   MPKI: 0
L1D PREFETCH  NON_SPEC    ACCESS:   56880050  HIT:   53549992  MISS:    3330058  HIT %:    94.1455  MISS %:    5.85453   MPKI: 16.6503
L1D COMMIT LOAD NON_SPEC    ACCESS:   14357328  HIT:   14356436  MISS:        892  HIT %:    99.9938  MISS %: 0.00621286   MPKI: 0.00446
L1D COMMIT WRITE NON_SPEC    ACCESS:   38861916  HIT:   38714553  MISS:     147363  HIT %:    99.6208  MISS %:   0.379196   MPKI: 0.736815
L1D PREFETCH  REQUESTED:  110965751  ISSUED:   66140014  USEFUL:    3107141  USELESS:     222935
L1D USEFUL LOAD PREFETCHES:    3107141 PREFETCH ISSUED TO LOWER LEVEL:    7663402  ACCURACY: 40.5452
L1D TIMELY PREFETCHES:    3107141 LATE PREFETCHES: 45960 DROPPED PREFETCHES: 2680983
L1D COMMIT LATE PREFETCHES: 0 NORMAL LATE: 45960 MISSED OPPORTUNITY: 0 UNCOVERED: 122879
L1D PREFETCHES SAME FILL-ORIGIN LEVEL: 3376063 DIFFERENT FILL-ORIGIN LEVEL: 4287339
L1D AVERAGE MISS LATENCY: 246.718 cycles
L1D AVERAGE MISS LATENCY LOAD: 222.474 cycles
L1D AVERAGE MISS LATENCY PREFETCH: 258.894 cycles
L1D AVERAGE MSHR OCCUPANCY: 4.01385
L1D MSHR FULL: 0.0083909
L1D RQ	ACCESS:   70569570	FORWARD:          0	MERGED:    3582536	TO_CACHE:   60268286
L1D WQ	ACCESS:   48701905	FORWARD:    6718748	MERGED:      71200	TO_CACHE:   48630705
L1D PQ	ACCESS:   66140014	FORWARD:          0	MERGED:      82405	TO_CACHE:   66057609

L1D UNIQUE REGIONS ACCESSED: 0
L1D REGIONS CONFLICTS: 0
L1D Cross Page Prefetch Requests: 4505527
L1D Same Page Prefetch Requests: 73344792
L1D ROI Sum of L1D PQ occupancy: 1701880586
L1D PREFETCHES PUSHED FROM L2C: 0
L1I SPEC fills:          0  NON-SPEC fills:          0
L1I Test counter :          0
L1I Leapfrog:          0
L1I MSHR merge:          0
L1I TOTAL     ACCESS:   29758499  HIT:   29758499  MISS:          0  HIT %:        100  MISS %:          0   MPKI: 0
L1I LOAD      TOTAL       ACCESS:   29758499  HIT:   29758499  MISS:          0  HIT %:        100  MISS %:          0   MPKI: 0
L1I LOAD      NON_SPEC    ACCESS:   29758499  HIT:   29758499  MISS:          0  HIT %:        100  MISS %:          0   MPKI: 0
L1I PREFETCH  REQUESTED:          0  ISSUED:          0  USEFUL:          0  USELESS:          0
L1I USEFUL LOAD PREFETCHES:          0 PREFETCH ISSUED TO LOWER LEVEL:          0  ACCURACY: -nan
L1I TIMELY PREFETCHES:          0 LATE PREFETCHES: 0 DROPPED PREFETCHES: 0
L1I COMMIT LATE PREFETCHES: 0 NORMAL LATE: 0 MISSED OPPORTUNITY: 0 UNCOVERED: 0
L1I PREFETCHES SAME FILL-ORIGIN LEVEL: 0 DIFFERENT FILL-ORIGIN LEVEL: 0
L1I AVERAGE MISS LATENCY: -nan cycles
L1I AVERAGE MISS LATENCY LOAD: -nan cycles
L1I AVERAGE MISS LATENCY PREFETCH: -nan cycles
L1I AVERAGE MSHR OCCUPANCY: 0
L1I MSHR FULL: 0
L1I RQ	ACCESS:   43367517	FORWARD:          0	MERGED:   13609017	TO_CACHE:   29758500

BTB SPEC fills:          0  NON-SPEC fills:          0
BTB Test counter :          0
BTB Leapfrog:          0
BTB MSHR merge:          0
BTB TOTAL     ACCESS:    1347104  HIT:    1347101  MISS:          3  HIT %:    99.9998  MISS %:  0.0002227   MPKI: 1.5e-05
BTB BRANCH_DIRECT_JUMP	ACCESS:          0  HIT:          0  MISS:          0
BTB BRANCH_INDIRECT	ACCESS:          0  HIT:          0  MISS:          0
BTB BRANCH_CONDITIONAL	ACCESS:    1347104  HIT:    1347101  MISS:          3
BTB BRANCH_DIRECT_CALL	ACCESS:          0  HIT:          0  MISS:          0
BTB BRANCH_INDIRECT_CALL	ACCESS:          0  HIT:          0  MISS:          0
BTB BRANCH_RETURN	ACCESS:          0  HIT:          0  MISS:          0
BTB BRANCH_OTHER ACCESS:          0  HIT:          0  MISS:          0

L2C SPEC fills:          0  NON-SPEC fills:      14215
L2C Test counter :          0
L2C Leapfrog:          0
L2C MSHR merge:       1977
L2C TOTAL     ACCESS:   14597488  HIT:   11018166  MISS:    3579322  HIT %:    75.4799  MISS %:    24.5201   MPKI: 17.8966
L2C LOAD      TOTAL       ACCESS:     122878  HIT:      17126  MISS:     105752  HIT %:    13.9374  MISS %:    86.0626   MPKI: 0.52876
L2C LOAD      NON_SPEC    ACCESS:      15838  HIT:       1623  MISS:      14215  HIT %:    10.2475  MISS %:    89.7525   MPKI: 0.071075
L2C LOAD      SPEC        ACCESS:     107040  HIT:      15503  MISS:      91537  HIT %:    14.4834  MISS %:    85.5166   MPKI: 0.457685
L2C PREFETCH  NON_SPEC    ACCESS:    6800555  HIT:    3425806  MISS:    3374749  HIT %:    50.3754  MISS %:    49.6246   MPKI: 16.8737
L2C WRITEBACK NON_SPEC    ACCESS:     287573  HIT:     287573  MISS:          0  HIT %:        100  MISS %:          0   MPKI: 0
L2C CLEAN_EVICTION NON_SPEC    ACCESS:    2986320  HIT:    2894984  MISS:      91336  HIT %:    96.9415  MISS %:    3.05848   MPKI: 0.45668
L2C COMMIT LOAD NON_SPEC    ACCESS:        888  HIT:        464  MISS:        424  HIT %:    52.2523  MISS %:    47.7477   MPKI: 0.00212
L2C LOAD TRANSLATION NON_SPEC    ACCESS:     215960  HIT:     215646  MISS:        314  HIT %:    99.8546  MISS %:   0.145397   MPKI: 0.00157
L2C TRANSLATION FROM L1D PREFETCHER NON_SPEC    ACCESS:    4183314  HIT:    4176567  MISS:       6747  HIT %:    99.8387  MISS %:   0.161284   MPKI: 0.033735
L2C PREFETCH  REQUESTED:          0  ISSUED:          0  USEFUL:      23306  USELESS:    3358314
L2C USEFUL LOAD PREFETCHES:      23306 PREFETCH ISSUED TO LOWER LEVEL:    3376730  ACCURACY: 0.690194
L2C TIMELY PREFETCHES:      23306 LATE PREFETCHES: 1977 DROPPED PREFETCHES: 0
L2C COMMIT LATE PREFETCHES: 0 NORMAL LATE: 1977 MISSED OPPORTUNITY: 0 UNCOVERED: 103775
L2C PREFETCHES SAME FILL-ORIGIN LEVEL: 901590 DIFFERENT FILL-ORIGIN LEVEL: 0
L2C AVERAGE MISS LATENCY: 323.852 cycles
L2C AVERAGE MISS LATENCY LOAD: 245.645 cycles
L2C AVERAGE MISS LATENCY PREFETCH: 335.092 cycles
L2C AVERAGE MSHR OCCUPANCY: 3.82025
L2C MSHR FULL: 0.000206695
L2C RQ	ACCESS:    4523045	FORWARD:          0	MERGED:          0	TO_CACHE:    4523040
L2C WQ	ACCESS:    3273893	FORWARD:          5	MERGED:          0	TO_CACHE:    3273893
L2C PQ	ACCESS:    7640760	FORWARD:          0	MERGED:         34	TO_CACHE:    7640726

L2C Instructions Evicting Data 0
L2C Translations Evicting Data 7058
L2C Data Evicting Data 3382547
L2C Instructions Evicting Instructions 0
L2C Translations Evicting Instructions 0
L2C Data Evicting Instructions 0
L2C Instructions Evicting Translations 0
L2C Translations Evicting Translations 3
L2C Data Evicting Translations 6841
L2C Dense regions hint from L2: 0
PSCL5 SPEC fills:          0  NON-SPEC fills:          0
PSCL5 Test counter :          0
PSCL5 Leapfrog:          0
PSCL5 MSHR merge:          0
PSCL5 TOTAL     ACCESS:          0  HIT:          0  MISS:          0  HIT %:       -nan  MISS %:       -nan   MPKI: 0
PSCL5 PREFETCH  REQUESTED:          0  ISSUED:          0  USEFUL:          0  USELESS:          0
PSCL5 USEFUL LOAD PREFETCHES:          0 PREFETCH ISSUED TO LOWER LEVEL:          0  ACCURACY: -nan
PSCL5 TIMELY PREFETCHES:          0 LATE PREFETCHES: 0 DROPPED PREFETCHES: 0
PSCL5 COMMIT LATE PREFETCHES: 0 NORMAL LATE: 0 MISSED OPPORTUNITY: 0 UNCOVERED: 0
PSCL5 PREFETCHES SAME FILL-ORIGIN LEVEL: 0 DIFFERENT FILL-ORIGIN LEVEL: 0

PSCL4 SPEC fills:          0  NON-SPEC fills:          0
PSCL4 Test counter :          0
PSCL4 Leapfrog:          0
PSCL4 MSHR merge:          0
PSCL4 TOTAL     ACCESS:          0  HIT:          0  MISS:          0  HIT %:       -nan  MISS %:       -nan   MPKI: 0
PSCL4 PREFETCH  REQUESTED:          0  ISSUED:          0  USEFUL:          0  USELESS:          0
PSCL4 USEFUL LOAD PREFETCHES:          0 PREFETCH ISSUED TO LOWER LEVEL:          0  ACCURACY: -nan
PSCL4 TIMELY PREFETCHES:          0 LATE PREFETCHES: 0 DROPPED PREFETCHES: 0
PSCL4 COMMIT LATE PREFETCHES: 0 NORMAL LATE: 0 MISSED OPPORTUNITY: 0 UNCOVERED: 0
PSCL4 PREFETCHES SAME FILL-ORIGIN LEVEL: 0 DIFFERENT FILL-ORIGIN LEVEL: 0

PSCL3 SPEC fills:          0  NON-SPEC fills:          0
PSCL3 Test counter :          0
PSCL3 Leapfrog:          0
PSCL3 MSHR merge:          0
PSCL3 TOTAL     ACCESS:          0  HIT:          0  MISS:          0  HIT %:       -nan  MISS %:       -nan   MPKI: 0
PSCL3 PREFETCH  REQUESTED:          0  ISSUED:          0  USEFUL:          0  USELESS:          0
PSCL3 USEFUL LOAD PREFETCHES:          0 PREFETCH ISSUED TO LOWER LEVEL:          0  ACCURACY: -nan
PSCL3 TIMELY PREFETCHES:          0 LATE PREFETCHES: 0 DROPPED PREFETCHES: 0
PSCL3 COMMIT LATE PREFETCHES: 0 NORMAL LATE: 0 MISSED OPPORTUNITY: 0 UNCOVERED: 0
PSCL3 PREFETCHES SAME FILL-ORIGIN LEVEL: 0 DIFFERENT FILL-ORIGIN LEVEL: 0

PSCL2 SPEC fills:          0  NON-SPEC fills:          0
PSCL2 Test counter :          0
PSCL2 Leapfrog:          0
PSCL2 MSHR merge:          0
PSCL2 TOTAL     ACCESS:          0  HIT:          0  MISS:          0  HIT %:       -nan  MISS %:       -nan   MPKI: 0
PSCL2 PREFETCH  REQUESTED:          0  ISSUED:          0  USEFUL:          0  USELESS:          0
PSCL2 USEFUL LOAD PREFETCHES:          0 PREFETCH ISSUED TO LOWER LEVEL:          0  ACCURACY: -nan
PSCL2 TIMELY PREFETCHES:          0 LATE PREFETCHES: 0 DROPPED PREFETCHES: 0
PSCL2 COMMIT LATE PREFETCHES: 0 NORMAL LATE: 0 MISSED OPPORTUNITY: 0 UNCOVERED: 0
PSCL2 PREFETCHES SAME FILL-ORIGIN LEVEL: 0 DIFFERENT FILL-ORIGIN LEVEL: 0

LLC SPEC fills:          0  NON-SPEC fills:      14120
LLC Test counter :          0
LLC Leapfrog:          0
LLC MSHR merge:          0
LLC TOTAL     ACCESS:    6761353  HIT:    3190310  MISS:    3571043  HIT %:    47.1845  MISS %:    52.8155   MPKI: 17.8552
LLC LOAD      TOTAL       ACCESS:     103775  HIT:         10  MISS:     103765  HIT %: 0.00963623  MISS %:    99.9904   MPKI: 0.518825
LLC LOAD      NON_SPEC    ACCESS:      14120  HIT:          0  MISS:      14120  HIT %:          0  MISS %:        100   MPKI: 0.0706
LLC LOAD      SPEC        ACCESS:      89655  HIT:         10  MISS:      89645  HIT %:  0.0111539  MISS %:    99.9888   MPKI: 0.448225
LLC PREFETCH  NON_SPEC    ACCESS:    3376726  HIT:       8561  MISS:    3368165  HIT %:    0.25353  MISS %:    99.7465   MPKI: 16.8408
LLC WRITEBACK NON_SPEC    ACCESS:     286967  HIT:     286967  MISS:          0  HIT %:        100  MISS %:          0   MPKI: 0
LLC CLEAN_EVICTION NON_SPEC    ACCESS:    2986400  HIT:    2894722  MISS:      91678  HIT %:    96.9302  MISS %:    3.06985   MPKI: 0.45839
LLC COMMIT LOAD NON_SPEC    ACCESS:        424  HIT:          7  MISS:        417  HIT %:    1.65094  MISS %:    98.3491   MPKI: 0.002085
LLC LOAD TRANSLATION NON_SPEC    ACCESS:        314  HIT:         28  MISS:        286  HIT %:     8.9172  MISS %:    91.0828   MPKI: 0.00143
LLC TRANSLATION FROM L1D PREFETCHER NON_SPEC    ACCESS:       6747  HIT:         15  MISS:       6732  HIT %:   0.222321  MISS %:    99.7777   MPKI: 0.03366
LLC PREFETCH  REQUESTED:          0  ISSUED:          0  USEFUL:         32  USELESS:    3375051
LLC USEFUL LOAD PREFETCHES:         32 PREFETCH ISSUED TO LOWER LEVEL:    3368165  ACCURACY: 0.000950072
LLC TIMELY PREFETCHES:         32 LATE PREFETCHES: 0 DROPPED PREFETCHES: 0
LLC COMMIT LATE PREFETCHES: 0 NORMAL LATE: 0 MISSED OPPORTUNITY: 0 UNCOVERED: 103765
LLC PREFETCHES SAME FILL-ORIGIN LEVEL: 0 DIFFERENT FILL-ORIGIN LEVEL: 0
LLC AVERAGE MISS LATENCY: 294.692 cycles
LLC AVERAGE MISS LATENCY LOAD: 219.386 cycles
LLC AVERAGE MISS LATENCY PREFETCH: 305.055 cycles
LLC AVERAGE MSHR OCCUPANCY: 3.69688
LLC MSHR FULL: 0
LLC RQ	ACCESS:     111260	FORWARD:          0	MERGED:          0	TO_CACHE:     111260
LLC WQ	ACCESS:    3273367	FORWARD:          0	MERGED:          0	TO_CACHE:    3273367
LLC PQ	ACCESS:    3376730	FORWARD:          0	MERGED:          0	TO_CACHE:    3376730

LLC Dense regions hint to LLC: 0

RAW hits: 490809
Loads Generated: 70745803
Loads sent to L1D: 70254989
Stores Generated: 9834442
Stores sent to L1D: 9834442
Major fault: 0 Minor fault: 54759
Allocated PAGES: 54759
Total Load insts: 87338944
Total Non-spec loads: 7108083
Percentage of speculative loads: 91.8615

LeapFrogging counter: 23529
Commit hits: 38867464 miss: 24658690
Commit hit %: 61.1834 miss %: 38.8166
Commits not translated: 0
Loads retired: 168839
Stores retired: 9834442
Cache fills: 168839
L1D response latency: 222.474 cycles
Load retirement latency: 311.973 cycles
OOO test counter: 0
Discarded buffer inserts: 38867464 hits: 200 hit %: 0.000514569
Filter prediction accuracy: -nan
LATENCY_FILL: 220.715 168587

DRAM Statistics
 CHANNEL 0
 RQ ROW_BUFFER_HIT:     777271  ROW_BUFFER_MISS:    2702094
 DBUS_CONGESTED:       1331
 WQ ROW_BUFFER_HIT:     835478  ROW_BUFFER_MISS:    2437676  FULL:        798

 AVG_CONGESTED_CYCLE: 5
 All warmup complete: 2
Channel 0 Bank busy for read cycles: 0
Channel 0 Bank busy for write cycles: 0
Channel 0
Rank 0
0banks busy for read cycles: 426139
0banks busy for write cycles: 1251
1banks busy for read cycles: 27717633
1banks busy for write cycles: 563634
2banks busy for read cycles: 24843987
2banks busy for write cycles: 583355
3banks busy for read cycles: 20448420
3banks busy for write cycles: 644028
4banks busy for read cycles: 16319795
4banks busy for write cycles: 731214
5banks busy for read cycles: 13277726
5banks busy for write cycles: 900292
6banks busy for read cycles: 11258666
6banks busy for write cycles: 1288368
7banks busy for read cycles: 9531605
7banks busy for write cycles: 5498464
8banks busy for read cycles: 9126278
8banks busy for write cycles: 66235910

CPU 0 Branch Prediction Accuracy: 99.9985% MPKI: 0.000105 Average ROB Occupancy at Mispredict: 62.0952
Branch types
NOT_BRANCH: 198618971 99.3095%
BRANCH_DIRECT_JUMP: 0 0%
BRANCH_INDIRECT: 0 0%
BRANCH_CONDITIONAL: 1380806 0.690403%
BRANCH_DIRECT_CALL: 0 0%
BRANCH_INDIRECT_CALL: 0 0%
BRANCH_RETURN: 0 0%
BRANCH_OTHER: 0 0%

DRAM PAGES: 1048576
Allocated PAGES: 54759
