
*** ChampSim Multicore Out-of-Order Simulator ***

Warmup Instructions: 50000000
Simulation Instructions: 200000000
Number of CPUs: 1
LLC sets: 2048
LLC ways: 16
L0D sets: 16
L0D ways: 2
ROB size: 352
LQ size: 128
SQ size: 72
Secure Berti: OFF
Berti: OFF
Berti Fill: OFF
On commit prefetching: OFF
Hit-based filter: OFF
Time-guarding: ON
Free-slotting: ON
Leap-frogging: ON
Train prefetcher on L0D bypass: OFF
No translation penalty for prefetchers: OFF
Prefetch to L0D only: OFF
Prefetch to L1D only: OFF
Clean evictions: ON
Commit loads: ON
Commit write: ON
Fill commit loads to L2C, LLC: ON
DRAM IO FREQUENCY: 6400
ROB SIZE: 352
Off-chip DRAM Size: 4096 MB Channels: 1 Width: 64-bit Data Rate: 6400 MT/s
CPU 0 runs /home/sumon/secure_berti/GhostMinion/../../traces/spec/654.roms_s-294B.champsimtrace.xz
.xz
BTB has LRU replacement policy
ITLB has LRU replacement policy
DTLB has LRU replacement policy
STLB has LRU replacement policy
L1I has LRU replacement policy
L0D has LRU replacement policy
History Sets: 8
History Ways: 16
BERTI Size: 16
BERTI Stride Size: 16
L1D has LRU replacement policy
L2C has LRU replacement policy
LLC has LRU replacement policy
Heartbeat CPU 0 instructions: 10000001 cycles: 3445517 heartbeat IPC: 2.90232 cumulative IPC: 2.90232 (Simulation time: 0 hr 0 min 42 sec) 
Heartbeat CPU 0 instructions: 20000000 cycles: 6890694 heartbeat IPC: 2.90261 cumulative IPC: 2.90247 (Simulation time: 0 hr 1 min 24 sec) 
Heartbeat CPU 0 instructions: 30000003 cycles: 10336293 heartbeat IPC: 2.90225 cumulative IPC: 2.90239 (Simulation time: 0 hr 2 min 6 sec) 
Heartbeat CPU 0 instructions: 40000001 cycles: 13781079 heartbeat IPC: 2.90294 cumulative IPC: 2.90253 (Simulation time: 0 hr 2 min 47 sec) 
Heartbeat CPU 0 instructions: 50000002 cycles: 17225849 heartbeat IPC: 2.90295 cumulative IPC: 2.90261 (Simulation time: 0 hr 3 min 28 sec) 

Warmup complete CPU 0 instructions: 50000002 cycles: 17225849 (Simulation time: 0 hr 3 min 28 sec) 

Heartbeat CPU 0 instructions: 60000002 cycles: 27005413 heartbeat IPC: 1.02254 cumulative IPC: 1.02254 (Simulation time: 0 hr 4 min 14 sec) 
Heartbeat CPU 0 instructions: 70000001 cycles: 36772146 heartbeat IPC: 1.02388 cumulative IPC: 1.02321 (Simulation time: 0 hr 4 min 59 sec) 
Heartbeat CPU 0 instructions: 80000001 cycles: 46547691 heartbeat IPC: 1.02296 cumulative IPC: 1.02313 (Simulation time: 0 hr 5 min 44 sec) 
Heartbeat CPU 0 instructions: 90000002 cycles: 56325316 heartbeat IPC: 1.02274 cumulative IPC: 1.02303 (Simulation time: 0 hr 6 min 29 sec) 
Heartbeat CPU 0 instructions: 100000001 cycles: 66107753 heartbeat IPC: 1.02224 cumulative IPC: 1.02287 (Simulation time: 0 hr 7 min 14 sec) 
Heartbeat CPU 0 instructions: 110000000 cycles: 75901358 heartbeat IPC: 1.02107 cumulative IPC: 1.02257 (Simulation time: 0 hr 7 min 59 sec) 
Heartbeat CPU 0 instructions: 120000002 cycles: 85674094 heartbeat IPC: 1.02326 cumulative IPC: 1.02267 (Simulation time: 0 hr 8 min 44 sec) 
Heartbeat CPU 0 instructions: 130000001 cycles: 95443574 heartbeat IPC: 1.0236 cumulative IPC: 1.02279 (Simulation time: 0 hr 9 min 29 sec) 
Heartbeat CPU 0 instructions: 140000001 cycles: 105219480 heartbeat IPC: 1.02292 cumulative IPC: 1.0228 (Simulation time: 0 hr 10 min 15 sec) 
Heartbeat CPU 0 instructions: 150000000 cycles: 114994347 heartbeat IPC: 1.02303 cumulative IPC: 1.02282 (Simulation time: 0 hr 11 min 0 sec) 
Heartbeat CPU 0 instructions: 160000003 cycles: 124768220 heartbeat IPC: 1.02314 cumulative IPC: 1.02285 (Simulation time: 0 hr 11 min 46 sec) 
Heartbeat CPU 0 instructions: 170000000 cycles: 134545063 heartbeat IPC: 1.02282 cumulative IPC: 1.02285 (Simulation time: 0 hr 12 min 32 sec) 
Heartbeat CPU 0 instructions: 180000000 cycles: 144305007 heartbeat IPC: 1.0246 cumulative IPC: 1.02298 (Simulation time: 0 hr 13 min 18 sec) 
Heartbeat CPU 0 instructions: 190000002 cycles: 154077312 heartbeat IPC: 1.0233 cumulative IPC: 1.02301 (Simulation time: 0 hr 14 min 5 sec) 
Heartbeat CPU 0 instructions: 200000002 cycles: 163855003 heartbeat IPC: 1.02274 cumulative IPC: 1.02299 (Simulation time: 0 hr 14 min 49 sec) 
Heartbeat CPU 0 instructions: 210000002 cycles: 173635118 heartbeat IPC: 1.02248 cumulative IPC: 1.02296 (Simulation time: 0 hr 15 min 33 sec) 
Heartbeat CPU 0 instructions: 220000000 cycles: 183414384 heartbeat IPC: 1.02257 cumulative IPC: 1.02293 (Simulation time: 0 hr 16 min 17 sec) 
Heartbeat CPU 0 instructions: 230000002 cycles: 193202254 heartbeat IPC: 1.02167 cumulative IPC: 1.02286 (Simulation time: 0 hr 17 min 1 sec) 
Heartbeat CPU 0 instructions: 240000002 cycles: 202981696 heartbeat IPC: 1.02255 cumulative IPC: 1.02285 (Simulation time: 0 hr 17 min 44 sec) 
Heartbeat CPU 0 instructions: 250000001 cycles: 212752288 heartbeat IPC: 1.02348 cumulative IPC: 1.02288 (Simulation time: 0 hr 18 min 25 sec) 
Finished CPU 0 instructions: 200000003 cycles: 195526440 cumulative IPC: 1.02288 (Simulation time: 0 hr 18 min 25 sec) 
 Instruction ID: 250000056

ChampSim completed all CPUs

Region of Interest Statistics

CPU 0 cumulative IPC: 1.02288 instructions: 200000003 cycles: 195526440
ITLB SPEC fills:          0  NON-SPEC fills:          0
ITLB Test counter :          0
ITLB Leapfrog:          0
ITLB MSHR merge:          0
ITLB TOTAL     ACCESS:   26821184  HIT:   26821184  MISS:          0  HIT %:        100  MISS %:          0   MPKI: 0
ITLB LOAD TRANSLATION NON_SPEC    ACCESS:   26821184  HIT:   26821184  MISS:          0  HIT %:        100  MISS %:          0   MPKI: 0
ITLB PREFETCH  REQUESTED:          0  ISSUED:          0  USEFUL:          0  USELESS:          0
ITLB USEFUL LOAD PREFETCHES:          0 PREFETCH ISSUED TO LOWER LEVEL:          0  ACCURACY: -nan
ITLB TIMELY PREFETCHES:          0 LATE PREFETCHES: 0 DROPPED PREFETCHES: 0
ITLB COMMIT LATE PREFETCHES: 0 NORMAL LATE: 0 MISSED OPPORTUNITY: 0 UNCOVERED: 0
ITLB PREFETCHES SAME FILL-ORIGIN LEVEL: 0 DIFFERENT FILL-ORIGIN LEVEL: 0
ITLB AVERAGE MISS LATENCY: -nan cycles
ITLB AVERAGE MISS LATENCY LOAD: -nan cycles
ITLB AVERAGE MISS LATENCY PREFETCH: -nan cycles
ITLB AVERAGE MSHR OCCUPANCY: 0
ITLB MSHR FULL: 0
ITLB RQ	ACCESS:   33463871	FORWARD:          0	MERGED:    6642688	TO_CACHE:   26821183

DTLB SPEC fills:          0  NON-SPEC fills:          0
DTLB Test counter :          0
DTLB Leapfrog:          0
DTLB MSHR merge:          0
DTLB TOTAL     ACCESS:   58225624  HIT:   58137821  MISS:      87803  HIT %:    99.8492  MISS %:   0.150798   MPKI: 0.439015
DTLB LOAD TRANSLATION NON_SPEC    ACCESS:   58225624  HIT:   58137821  MISS:      87803  HIT %:    99.8492  MISS %:   0.150798   MPKI: 0.439015
DTLB PREFETCH  REQUESTED:          0  ISSUED:          0  USEFUL:          0  USELESS:          0
DTLB USEFUL LOAD PREFETCHES:          0 PREFETCH ISSUED TO LOWER LEVEL:          0  ACCURACY: -nan
DTLB TIMELY PREFETCHES:          0 LATE PREFETCHES: 0 DROPPED PREFETCHES: 0
DTLB COMMIT LATE PREFETCHES: 0 NORMAL LATE: 0 MISSED OPPORTUNITY: 0 UNCOVERED: 0
DTLB PREFETCHES SAME FILL-ORIGIN LEVEL: 0 DIFFERENT FILL-ORIGIN LEVEL: 0
DTLB AVERAGE MISS LATENCY: 427.019 cycles
DTLB AVERAGE MISS LATENCY LOAD: -nan cycles
DTLB AVERAGE MISS LATENCY PREFETCH: -nan cycles
DTLB AVERAGE MSHR OCCUPANCY: 0.017484
DTLB MSHR FULL: 1.5454e-06
DTLB RQ	ACCESS:   62334326	FORWARD:          0	MERGED:    4097083	TO_CACHE:   58237243

STLB SPEC fills:          0  NON-SPEC fills:          0
STLB Test counter :          0
STLB Leapfrog:          0
STLB MSHR merge:          0
STLB TOTAL     ACCESS:   19131623  HIT:   19065867  MISS:      65756  HIT %:    99.6563  MISS %:   0.343703   MPKI: 0.32878
STLB LOAD TRANSLATION NON_SPEC    ACCESS:      87803  HIT:      22047  MISS:      65756  HIT %:    25.1096  MISS %:    74.8904   MPKI: 0.32878
STLB TRANSLATION FROM L1D PREFETCHER NON_SPEC    ACCESS:   19043820  HIT:   19043820  MISS:          0  HIT %:        100  MISS %:          0   MPKI: 0
STLB PREFETCH  REQUESTED:          0  ISSUED:          0  USEFUL:          0  USELESS:          0
STLB USEFUL LOAD PREFETCHES:          0 PREFETCH ISSUED TO LOWER LEVEL:          0  ACCURACY: -nan
STLB TIMELY PREFETCHES:          0 LATE PREFETCHES: 7724 DROPPED PREFETCHES: 441329
STLB COMMIT LATE PREFETCHES: 0 NORMAL LATE: 7724 MISSED OPPORTUNITY: 0 UNCOVERED: 18446744073709543892
STLB PREFETCHES SAME FILL-ORIGIN LEVEL: 0 DIFFERENT FILL-ORIGIN LEVEL: 0
STLB AVERAGE MISS LATENCY: 558.925 cycles
STLB AVERAGE MISS LATENCY LOAD: -nan cycles
STLB AVERAGE MISS LATENCY PREFETCH: -nan cycles
STLB AVERAGE MSHR OCCUPANCY: 0.105404
STLB MSHR FULL: 0
STLB RQ	ACCESS:   81088122	FORWARD:          0	MERGED:   61494371	TO_CACHE:   19593751

STLB Hit, L1D data hit: 0
STLB Hit, L2C data hit: 0
STLB Hit, LLC data hit: 0
STLB Hit, LLC data miss: 0
STLB STLB hints to L2: 0
L0D SPEC fills:   34272800  NON-SPEC fills:          0
L0D TimeGuard Request with older TS:    1658338 Restricted eviction:    2120130 read:      85394
L0D Test counter :          0
L0D Leapfrog:          0
L0D MSHR merge:    3154875
L0D TOTAL     ACCESS:   52378762  HIT:    8094082  MISS:   44284680  HIT %:     15.453  MISS %:     84.547   MPKI: 221.423
L0D LOAD      TOTAL       ACCESS:   52378762  HIT:    8094082  MISS:   44284680  HIT %:     15.453  MISS %:     84.547   MPKI: 221.423
L0D LOAD      NON_SPEC    ACCESS:    8051081  HIT:     159327  MISS:    7891754  HIT %:    1.97895  MISS %:     98.021   MPKI: 39.4588
L0D LOAD      SPEC        ACCESS:   44327681  HIT:    7934755  MISS:   36392926  HIT %:    17.9002  MISS %:    82.0998   MPKI: 181.965
L0D PREFETCH  REQUESTED:          0  ISSUED:          0  USEFUL:          0  USELESS:          0
L0D USEFUL LOAD PREFETCHES:          0 PREFETCH ISSUED TO LOWER LEVEL:          0  ACCURACY: -nan
L0D TIMELY PREFETCHES:          0 LATE PREFETCHES: 0 DROPPED PREFETCHES: 0
L0D COMMIT LATE PREFETCHES: 0 NORMAL LATE: 0 MISSED OPPORTUNITY: 0 UNCOVERED: 44284680
L0D PREFETCHES SAME FILL-ORIGIN LEVEL: 0 DIFFERENT FILL-ORIGIN LEVEL: 0
L0D AVERAGE MISS LATENCY: 5.61035 cycles
L0D AVERAGE MISS LATENCY LOAD: 5.61035 cycles
L0D AVERAGE MISS LATENCY PREFETCH: -nan cycles
L0D AVERAGE MSHR OCCUPANCY: 1.29831
L0D MSHR FULL: 2.82711e-06
L0D RQ	ACCESS:   76447427	FORWARD:          0	MERGED:   20913792	TO_CACHE:   55533635
L0D WQ	ACCESS:    6800691	FORWARD:          0	MERGED:          0	TO_CACHE:    6800691

L1D SPEC fills:          0  NON-SPEC fills:      21785
L1D Test counter :          0
L1D Leapfrog:          0
L1D MSHR merge:      38777
L1D TOTAL     ACCESS:  172718588  HIT:  169627169  MISS:    3091419  HIT %:    98.2101  MISS %:    1.78986   MPKI: 15.4571
L1D LOAD      TOTAL       ACCESS:   44281690  HIT:   44102022  MISS:     179668  HIT %:    99.5943  MISS %:   0.405739   MPKI: 0.89834
L1D LOAD      NON_SPEC    ACCESS:    7891597  HIT:    7869812  MISS:      21785  HIT %:    99.7239  MISS %:   0.276053   MPKI: 0.108925
L1D LOAD      SPEC        ACCESS:   36390093  HIT:   36232210  MISS:     157883  HIT %:    99.5661  MISS %:   0.433863   MPKI: 0.789415
L1D RFO       NON_SPEC    ACCESS:    5545773  HIT:    5525968  MISS:      19805  HIT %:    99.6429  MISS %:   0.357119   MPKI: 0.099025
L1D PREFETCH  NON_SPEC    ACCESS:   74627459  HIT:   71890363  MISS:    2737096  HIT %:    96.3323  MISS %:    3.66768   MPKI: 13.6855
L1D COMMIT LOAD NON_SPEC    ACCESS:   15185727  HIT:   15179459  MISS:       6268  HIT %:    99.9587  MISS %:  0.0412756   MPKI: 0.03134
L1D COMMIT WRITE NON_SPEC    ACCESS:   33077939  HIT:   32929357  MISS:     148582  HIT %:    99.5508  MISS %:   0.449188   MPKI: 0.74291
L1D PREFETCH  REQUESTED:  162594960  ISSUED:   82375475  USEFUL:    2455541  USELESS:     281573
L1D USEFUL LOAD PREFETCHES:    2455541 PREFETCH ISSUED TO LOWER LEVEL:    7372191  ACCURACY: 33.3082
L1D TIMELY PREFETCHES:    2455541 LATE PREFETCHES: 35800 DROPPED PREFETCHES: 1193375
L1D COMMIT LATE PREFETCHES: 0 NORMAL LATE: 35800 MISSED OPPORTUNITY: 0 UNCOVERED: 143868
L1D PREFETCHES SAME FILL-ORIGIN LEVEL: 2772901 DIFFERENT FILL-ORIGIN LEVEL: 4599290
L1D AVERAGE MISS LATENCY: 140.683 cycles
L1D AVERAGE MISS LATENCY LOAD: 121.122 cycles
L1D AVERAGE MISS LATENCY PREFETCH: 148.25 cycles
L1D AVERAGE MSHR OCCUPANCY: 2.00127
L1D MSHR FULL: 0.00105557
L1D RQ	ACCESS:   79586519	FORWARD:          0	MERGED:   20110232	TO_CACHE:   59476287
L1D WQ	ACCESS:   39874377	FORWARD:          0	MERGED:    1159995	TO_CACHE:   38714382
L1D PQ	ACCESS:   82375475	FORWARD:          0	MERGED:    1375156	TO_CACHE:   81000319

L1D UNIQUE REGIONS ACCESSED: 0
L1D REGIONS CONFLICTS: 0
L1D Cross Page Prefetch Requests: 4830886
L1D Same Page Prefetch Requests: 93588496
L1D ROI Sum of L1D PQ occupancy: 1637569608
L1D PREFETCHES PUSHED FROM L2C: 0
L1I SPEC fills:          0  NON-SPEC fills:          0
L1I Test counter :          0
L1I Leapfrog:          0
L1I MSHR merge:          0
L1I TOTAL     ACCESS:   33463872  HIT:   33463872  MISS:          0  HIT %:        100  MISS %:          0   MPKI: 0
L1I LOAD      TOTAL       ACCESS:   33463872  HIT:   33463872  MISS:          0  HIT %:        100  MISS %:          0   MPKI: 0
L1I LOAD      NON_SPEC    ACCESS:   33463872  HIT:   33463872  MISS:          0  HIT %:        100  MISS %:          0   MPKI: 0
L1I PREFETCH  REQUESTED:          0  ISSUED:          0  USEFUL:          0  USELESS:          0
L1I USEFUL LOAD PREFETCHES:          0 PREFETCH ISSUED TO LOWER LEVEL:          0  ACCURACY: -nan
L1I TIMELY PREFETCHES:          0 LATE PREFETCHES: 0 DROPPED PREFETCHES: 0
L1I COMMIT LATE PREFETCHES: 0 NORMAL LATE: 0 MISSED OPPORTUNITY: 0 UNCOVERED: 0
L1I PREFETCHES SAME FILL-ORIGIN LEVEL: 0 DIFFERENT FILL-ORIGIN LEVEL: 0
L1I AVERAGE MISS LATENCY: -nan cycles
L1I AVERAGE MISS LATENCY LOAD: -nan cycles
L1I AVERAGE MISS LATENCY PREFETCH: -nan cycles
L1I AVERAGE MSHR OCCUPANCY: 0
L1I MSHR FULL: 0
L1I RQ	ACCESS:   53572306	FORWARD:          0	MERGED:   20108435	TO_CACHE:   33463871

BTB SPEC fills:          0  NON-SPEC fills:          0
BTB Test counter :          0
BTB Leapfrog:          0
BTB MSHR merge:          0
BTB TOTAL     ACCESS:   10024820  HIT:   10024809  MISS:         11  HIT %:    99.9999  MISS %: 0.000109728   MPKI: 5.5e-05
BTB BRANCH_DIRECT_JUMP	ACCESS:        162  HIT:        161  MISS:          1
BTB BRANCH_INDIRECT	ACCESS:          0  HIT:          0  MISS:          0
BTB BRANCH_CONDITIONAL	ACCESS:   10024334  HIT:   10024326  MISS:          8
BTB BRANCH_DIRECT_CALL	ACCESS:        162  HIT:        161  MISS:          1
BTB BRANCH_INDIRECT_CALL	ACCESS:          0  HIT:          0  MISS:          0
BTB BRANCH_RETURN	ACCESS:        162  HIT:        161  MISS:          1
BTB BRANCH_OTHER ACCESS:          0  HIT:          0  MISS:          0

L2C SPEC fills:          0  NON-SPEC fills:       2239
L2C Test counter :          0
L2C Leapfrog:          0
L2C MSHR merge:        665
L2C TOTAL     ACCESS:   12549622  HIT:    9492267  MISS:    3057355  HIT %:    75.6379  MISS %:    24.3621   MPKI: 15.2868
L2C LOAD      TOTAL       ACCESS:     143691  HIT:      44153  MISS:      99538  HIT %:    30.7277  MISS %:    69.2723   MPKI: 0.49769
L2C LOAD      NON_SPEC    ACCESS:      21230  HIT:      18991  MISS:       2239  HIT %:    89.4536  MISS %:    10.5464   MPKI: 0.011195
L2C LOAD      SPEC        ACCESS:     122461  HIT:      25162  MISS:      97299  HIT %:    20.5469  MISS %:    79.4531   MPKI: 0.486495
L2C RFO       NON_SPEC    ACCESS:      19805  HIT:       2361  MISS:      17444  HIT %:    11.9212  MISS %:    88.0788   MPKI: 0.08722
L2C PREFETCH  NON_SPEC    ACCESS:    7189499  HIT:    4429373  MISS:    2760126  HIT %:    61.6089  MISS %:    38.3911   MPKI: 13.8006
L2C WRITEBACK NON_SPEC    ACCESS:      62226  HIT:      45052  MISS:      17174  HIT %:    72.4006  MISS %:    27.5994   MPKI: 0.08587
L2C CLEAN_EVICTION NON_SPEC    ACCESS:    2555397  HIT:    2452669  MISS:     102728  HIT %:      95.98  MISS %:    4.02004   MPKI: 0.51364
L2C COMMIT LOAD NON_SPEC    ACCESS:       6240  HIT:       1527  MISS:       4713  HIT %:    24.4712  MISS %:    75.5288   MPKI: 0.023565
L2C LOAD TRANSLATION NON_SPEC    ACCESS:     328521  HIT:     277962  MISS:      50559  HIT %:    84.6101  MISS %:    15.3899   MPKI: 0.252795
L2C TRANSLATION FROM L1D PREFETCHER NON_SPEC    ACCESS:    2244243  HIT:    2239170  MISS:       5073  HIT %:     99.774  MISS %:   0.226045   MPKI: 0.025365
L2C PREFETCH  REQUESTED:          0  ISSUED:          0  USEFUL:      15596  USELESS:    2749781
L2C USEFUL LOAD PREFETCHES:      15596 PREFETCH ISSUED TO LOWER LEVEL:    2760799  ACCURACY: 0.564909
L2C TIMELY PREFETCHES:      15596 LATE PREFETCHES: 669 DROPPED PREFETCHES: 0
L2C COMMIT LATE PREFETCHES: 0 NORMAL LATE: 669 MISSED OPPORTUNITY: 0 UNCOVERED: 98869
L2C PREFETCHES SAME FILL-ORIGIN LEVEL: 687614 DIFFERENT FILL-ORIGIN LEVEL: 0
L2C AVERAGE MISS LATENCY: 169.629 cycles
L2C AVERAGE MISS LATENCY LOAD: 159.049 cycles
L2C AVERAGE MISS LATENCY PREFETCH: 177.51 cycles
L2C AVERAGE MSHR OCCUPANCY: 2.00101
L2C MSHR FULL: 2.00543e-05
L2C RQ	ACCESS:    2742705	FORWARD:          0	MERGED:          0	TO_CACHE:    2742500
L2C WQ	ACCESS:    2617623	FORWARD:        672	MERGED:          0	TO_CACHE:    2617623
L2C PQ	ACCESS:    7372191	FORWARD:          0	MERGED:          6	TO_CACHE:    7371718

L2C Instructions Evicting Data 0
L2C Translations Evicting Data 54745
L2C Data Evicting Data 2732516
L2C Instructions Evicting Instructions 0
L2C Translations Evicting Instructions 0
L2C Data Evicting Instructions 0
L2C Instructions Evicting Translations 0
L2C Translations Evicting Translations 887
L2C Data Evicting Translations 52006
L2C Dense regions hint from L2: 0
PSCL5 SPEC fills:          0  NON-SPEC fills:          0
PSCL5 Test counter :          0
PSCL5 Leapfrog:          0
PSCL5 MSHR merge:          0
PSCL5 TOTAL     ACCESS:          0  HIT:          0  MISS:          0  HIT %:       -nan  MISS %:       -nan   MPKI: 0
PSCL5 PREFETCH  REQUESTED:          0  ISSUED:          0  USEFUL:          0  USELESS:          0
PSCL5 USEFUL LOAD PREFETCHES:          0 PREFETCH ISSUED TO LOWER LEVEL:          0  ACCURACY: -nan
PSCL5 TIMELY PREFETCHES:          0 LATE PREFETCHES: 0 DROPPED PREFETCHES: 0
PSCL5 COMMIT LATE PREFETCHES: 0 NORMAL LATE: 0 MISSED OPPORTUNITY: 0 UNCOVERED: 0
PSCL5 PREFETCHES SAME FILL-ORIGIN LEVEL: 0 DIFFERENT FILL-ORIGIN LEVEL: 0

PSCL4 SPEC fills:          0  NON-SPEC fills:          0
PSCL4 Test counter :          0
PSCL4 Leapfrog:          0
PSCL4 MSHR merge:          0
PSCL4 TOTAL     ACCESS:          0  HIT:          0  MISS:          0  HIT %:       -nan  MISS %:       -nan   MPKI: 0
PSCL4 PREFETCH  REQUESTED:          0  ISSUED:          0  USEFUL:          0  USELESS:          0
PSCL4 USEFUL LOAD PREFETCHES:          0 PREFETCH ISSUED TO LOWER LEVEL:          0  ACCURACY: -nan
PSCL4 TIMELY PREFETCHES:          0 LATE PREFETCHES: 0 DROPPED PREFETCHES: 0
PSCL4 COMMIT LATE PREFETCHES: 0 NORMAL LATE: 0 MISSED OPPORTUNITY: 0 UNCOVERED: 0
PSCL4 PREFETCHES SAME FILL-ORIGIN LEVEL: 0 DIFFERENT FILL-ORIGIN LEVEL: 0

PSCL3 SPEC fills:          0  NON-SPEC fills:          0
PSCL3 Test counter :          0
PSCL3 Leapfrog:          0
PSCL3 MSHR merge:          0
PSCL3 TOTAL     ACCESS:          0  HIT:          0  MISS:          0  HIT %:       -nan  MISS %:       -nan   MPKI: 0
PSCL3 PREFETCH  REQUESTED:          0  ISSUED:          0  USEFUL:          0  USELESS:          0
PSCL3 USEFUL LOAD PREFETCHES:          0 PREFETCH ISSUED TO LOWER LEVEL:          0  ACCURACY: -nan
PSCL3 TIMELY PREFETCHES:          0 LATE PREFETCHES: 0 DROPPED PREFETCHES: 0
PSCL3 COMMIT LATE PREFETCHES: 0 NORMAL LATE: 0 MISSED OPPORTUNITY: 0 UNCOVERED: 0
PSCL3 PREFETCHES SAME FILL-ORIGIN LEVEL: 0 DIFFERENT FILL-ORIGIN LEVEL: 0

PSCL2 SPEC fills:          0  NON-SPEC fills:          0
PSCL2 Test counter :          0
PSCL2 Leapfrog:          0
PSCL2 MSHR merge:          0
PSCL2 TOTAL     ACCESS:          0  HIT:          0  MISS:          0  HIT %:       -nan  MISS %:       -nan   MPKI: 0
PSCL2 PREFETCH  REQUESTED:          0  ISSUED:          0  USEFUL:          0  USELESS:          0
PSCL2 USEFUL LOAD PREFETCHES:          0 PREFETCH ISSUED TO LOWER LEVEL:          0  ACCURACY: -nan
PSCL2 TIMELY PREFETCHES:          0 LATE PREFETCHES: 0 DROPPED PREFETCHES: 0
PSCL2 COMMIT LATE PREFETCHES: 0 NORMAL LATE: 0 MISSED OPPORTUNITY: 0 UNCOVERED: 0
PSCL2 PREFETCHES SAME FILL-ORIGIN LEVEL: 0 DIFFERENT FILL-ORIGIN LEVEL: 0

LLC SPEC fills:          0  NON-SPEC fills:       2111
LLC Test counter :          0
LLC Leapfrog:          0
LLC MSHR merge:          0
LLC TOTAL     ACCESS:    5481945  HIT:    2957576  MISS:    2524369  HIT %:    53.9512  MISS %:    46.0488   MPKI: 12.6218
LLC LOAD      TOTAL       ACCESS:      98873  HIT:       7664  MISS:      91209  HIT %:    7.75136  MISS %:    92.2486   MPKI: 0.456045
LLC LOAD      NON_SPEC    ACCESS:       2199  HIT:         88  MISS:       2111  HIT %:    4.00182  MISS %:    95.9982   MPKI: 0.010555
LLC LOAD      SPEC        ACCESS:      96674  HIT:       7576  MISS:      89098  HIT %:    7.83665  MISS %:    92.1634   MPKI: 0.44549
LLC RFO       NON_SPEC    ACCESS:      17442  HIT:       1283  MISS:      16159  HIT %:    7.35581  MISS %:    92.6442   MPKI: 0.080795
LLC PREFETCH  NON_SPEC    ACCESS:    2760791  HIT:     459791  MISS:    2301000  HIT %:    16.6543  MISS %:    83.3457   MPKI: 11.505
LLC WRITEBACK NON_SPEC    ACCESS:      26307  HIT:      19086  MISS:       7221  HIT %:     72.551  MISS %:     27.449   MPKI: 0.036105
LLC CLEAN_EVICTION NON_SPEC    ACCESS:    2518189  HIT:    2431394  MISS:      86795  HIT %:    96.5533  MISS %:    3.44672   MPKI: 0.433975
LLC COMMIT LOAD NON_SPEC    ACCESS:       4711  HIT:        881  MISS:       3830  HIT %:    18.7009  MISS %:    81.2991   MPKI: 0.01915
LLC LOAD TRANSLATION NON_SPEC    ACCESS:      50559  HIT:      37181  MISS:      13378  HIT %:    73.5398  MISS %:    26.4602   MPKI: 0.06689
LLC TRANSLATION FROM L1D PREFETCHER NON_SPEC    ACCESS:       5073  HIT:        296  MISS:       4777  HIT %:    5.83481  MISS %:    94.1652   MPKI: 0.023885
LLC PREFETCH  REQUESTED:          0  ISSUED:          0  USEFUL:       5823  USELESS:    2300004
LLC USEFUL LOAD PREFETCHES:       5823 PREFETCH ISSUED TO LOWER LEVEL:    2301004  ACCURACY: 0.253063
LLC TIMELY PREFETCHES:       5823 LATE PREFETCHES: 0 DROPPED PREFETCHES: 0
LLC COMMIT LATE PREFETCHES: 0 NORMAL LATE: 0 MISSED OPPORTUNITY: 0 UNCOVERED: 91209
LLC PREFETCHES SAME FILL-ORIGIN LEVEL: 0 DIFFERENT FILL-ORIGIN LEVEL: 0
LLC AVERAGE MISS LATENCY: 168.948 cycles
LLC AVERAGE MISS LATENCY LOAD: 141.301 cycles
LLC AVERAGE MISS LATENCY PREFETCH: 175.221 cycles
LLC AVERAGE MSHR OCCUPANCY: 3.45064
LLC MSHR FULL: 0
LLC RQ	ACCESS:     176658	FORWARD:          0	MERGED:          0	TO_CACHE:     176658
LLC WQ	ACCESS:    2544496	FORWARD:          4	MERGED:          0	TO_CACHE:    2544496
LLC PQ	ACCESS:    2760799	FORWARD:          0	MERGED:          0	TO_CACHE:    2760795

LLC Dense regions hint to LLC: 0

RAW hits: 313
Loads Generated: 76447741
Loads sent to L1D: 76447427
Stores Generated: 6800691
Stores sent to L1D: 6800691
Major fault: 0 Minor fault: 82777
Allocated PAGES: 82777
Total Load insts: 95560005
Total Non-spec loads: 9021801
Percentage of speculative loads: 90.559

LeapFrogging counter: 5129
Commit hits: 33078057 miss: 35301842
Commit hit %: 48.3739 miss %: 51.6261
Commits not translated: 0
Loads retired: 179668
Stores retired: 6800691
Cache fills: 179668
L1D response latency: 121.122 cycles
Load retirement latency: 487.8 cycles
OOO test counter: 0
Discarded buffer inserts: 33078057 hits: 578 hit %: 0.00174738
Filter prediction accuracy: -nan
LATENCY_FILL: 120.766 182318

DRAM Statistics
 CHANNEL 0
 RQ ROW_BUFFER_HIT:     603407  ROW_BUFFER_MISS:    1826934
 DBUS_CONGESTED:       4566
 WQ ROW_BUFFER_HIT:     748051  ROW_BUFFER_MISS:    1379179  FULL:        446

 AVG_CONGESTED_CYCLE: 5
 All warmup complete: 2
Channel 0 Bank busy for read cycles: 0
Channel 0 Bank busy for write cycles: 0
Channel 0
Rank 0
0banks busy for read cycles: 7655681
0banks busy for write cycles: 38374
1banks busy for read cycles: 41209579
1banks busy for write cycles: 4519274
2banks busy for read cycles: 26886210
2banks busy for write cycles: 4185303
3banks busy for read cycles: 17005023
3banks busy for write cycles: 4304010
4banks busy for read cycles: 10797981
4banks busy for write cycles: 4282632
5banks busy for read cycles: 6455393
5banks busy for write cycles: 4702589
6banks busy for read cycles: 3756096
6banks busy for write cycles: 5658102
7banks busy for read cycles: 2724577
7banks busy for write cycles: 9430817
8banks busy for read cycles: 5270734
8banks busy for write cycles: 36644066

CPU 0 Branch Prediction Accuracy: 99.9315% MPKI: 0.03438 Average ROB Occupancy at Mispredict: 62.8693
Branch types
NOT_BRANCH: 189955080 94.9775%
BRANCH_DIRECT_JUMP: 162 8.1e-05%
BRANCH_INDIRECT: 0 0%
BRANCH_CONDITIONAL: 10044110 5.02205%
BRANCH_DIRECT_CALL: 162 8.1e-05%
BRANCH_INDIRECT_CALL: 0 0%
BRANCH_RETURN: 162 8.1e-05%
BRANCH_OTHER: 0 0%

DRAM PAGES: 1048576
Allocated PAGES: 82777
