
*** ChampSim Multicore Out-of-Order Simulator ***

Warmup Instructions: 50000000
Simulation Instructions: 200000000
Number of CPUs: 1
LLC sets: 2048
LLC ways: 16
L0D sets: 16
L0D ways: 2
ROB size: 352
LQ size: 128
SQ size: 72
Secure Berti: OFF
Berti: OFF
Berti Fill: OFF
On commit prefetching: OFF
Hit-based filter: OFF
Time-guarding: ON
Free-slotting: ON
Leap-frogging: ON
Train prefetcher on L0D bypass: OFF
No translation penalty for prefetchers: OFF
Prefetch to L0D only: OFF
Prefetch to L1D only: OFF
Clean evictions: ON
Commit loads: ON
Commit write: ON
Fill commit loads to L2C, LLC: ON
DRAM IO FREQUENCY: 6400
ROB SIZE: 352
Off-chip DRAM Size: 4096 MB Channels: 1 Width: 64-bit Data Rate: 6400 MT/s
CPU 0 runs /home/sumon/secure_berti/GhostMinion/../../traces/spec/654.roms_s-1007B.champsimtrace.xz
.xz
BTB has LRU replacement policy
ITLB has LRU replacement policy
DTLB has LRU replacement policy
STLB has LRU replacement policy
L1I has LRU replacement policy
L0D has LRU replacement policy
History Sets: 8
History Ways: 16
BERTI Size: 16
BERTI Stride Size: 16
L1D has LRU replacement policy
L2C has LRU replacement policy
LLC has LRU replacement policy
Heartbeat CPU 0 instructions: 10000000 cycles: 5299338 heartbeat IPC: 1.88703 cumulative IPC: 1.88703 (Simulation time: 0 hr 0 min 38 sec) 
Heartbeat CPU 0 instructions: 20000003 cycles: 10597177 heartbeat IPC: 1.88756 cumulative IPC: 1.8873 (Simulation time: 0 hr 1 min 15 sec) 
Heartbeat CPU 0 instructions: 30000000 cycles: 15896261 heartbeat IPC: 1.88712 cumulative IPC: 1.88724 (Simulation time: 0 hr 1 min 53 sec) 
Heartbeat CPU 0 instructions: 40000003 cycles: 21195456 heartbeat IPC: 1.88708 cumulative IPC: 1.8872 (Simulation time: 0 hr 2 min 31 sec) 
Heartbeat CPU 0 instructions: 50000003 cycles: 25371590 heartbeat IPC: 2.39456 cumulative IPC: 1.97071 (Simulation time: 0 hr 3 min 14 sec) 

Warmup complete CPU 0 instructions: 50000003 cycles: 25371590 (Simulation time: 0 hr 3 min 14 sec) 

Heartbeat CPU 0 instructions: 60000002 cycles: 43245044 heartbeat IPC: 0.559489 cumulative IPC: 0.559489 (Simulation time: 0 hr 4 min 8 sec) 
Heartbeat CPU 0 instructions: 70000000 cycles: 60494340 heartbeat IPC: 0.579734 cumulative IPC: 0.569431 (Simulation time: 0 hr 4 min 57 sec) 
Heartbeat CPU 0 instructions: 80000000 cycles: 77745214 heartbeat IPC: 0.579681 cumulative IPC: 0.572807 (Simulation time: 0 hr 5 min 46 sec) 
Heartbeat CPU 0 instructions: 90000000 cycles: 94993041 heartbeat IPC: 0.579783 cumulative IPC: 0.574536 (Simulation time: 0 hr 6 min 35 sec) 
Heartbeat CPU 0 instructions: 100000000 cycles: 112237478 heartbeat IPC: 0.579897 cumulative IPC: 0.5756 (Simulation time: 0 hr 7 min 25 sec) 
Heartbeat CPU 0 instructions: 110000000 cycles: 129485358 heartbeat IPC: 0.579781 cumulative IPC: 0.576293 (Simulation time: 0 hr 8 min 15 sec) 
Heartbeat CPU 0 instructions: 120000001 cycles: 146374407 heartbeat IPC: 0.5921 cumulative IPC: 0.578499 (Simulation time: 0 hr 9 min 10 sec) 
Heartbeat CPU 0 instructions: 130000002 cycles: 164587023 heartbeat IPC: 0.54907 cumulative IPC: 0.574649 (Simulation time: 0 hr 10 min 17 sec) 
Heartbeat CPU 0 instructions: 140000000 cycles: 181761835 heartbeat IPC: 0.582248 cumulative IPC: 0.575483 (Simulation time: 0 hr 11 min 8 sec) 
Heartbeat CPU 0 instructions: 150000000 cycles: 198932973 heartbeat IPC: 0.582373 cumulative IPC: 0.576165 (Simulation time: 0 hr 11 min 59 sec) 
Heartbeat CPU 0 instructions: 160000001 cycles: 216103896 heartbeat IPC: 0.58238 cumulative IPC: 0.576725 (Simulation time: 0 hr 12 min 51 sec) 
Heartbeat CPU 0 instructions: 170000000 cycles: 233271230 heartbeat IPC: 0.582502 cumulative IPC: 0.577202 (Simulation time: 0 hr 13 min 42 sec) 
Heartbeat CPU 0 instructions: 180000002 cycles: 250442115 heartbeat IPC: 0.582381 cumulative IPC: 0.577597 (Simulation time: 0 hr 14 min 33 sec) 
Heartbeat CPU 0 instructions: 190000002 cycles: 267613176 heartbeat IPC: 0.582375 cumulative IPC: 0.577935 (Simulation time: 0 hr 15 min 25 sec) 
Heartbeat CPU 0 instructions: 200000001 cycles: 284039841 heartbeat IPC: 0.608766 cumulative IPC: 0.579893 (Simulation time: 0 hr 16 min 36 sec) 
Heartbeat CPU 0 instructions: 210000001 cycles: 302436878 heartbeat IPC: 0.543566 cumulative IPC: 0.577481 (Simulation time: 0 hr 17 min 30 sec) 
Heartbeat CPU 0 instructions: 220000000 cycles: 319614883 heartbeat IPC: 0.58214 cumulative IPC: 0.577753 (Simulation time: 0 hr 18 min 17 sec) 
Heartbeat CPU 0 instructions: 230000000 cycles: 336796609 heartbeat IPC: 0.582014 cumulative IPC: 0.577988 (Simulation time: 0 hr 18 min 55 sec) 
Heartbeat CPU 0 instructions: 240000001 cycles: 353978385 heartbeat IPC: 0.582012 cumulative IPC: 0.578199 (Simulation time: 0 hr 19 min 32 sec) 
Heartbeat CPU 0 instructions: 250000003 cycles: 371156538 heartbeat IPC: 0.582135 cumulative IPC: 0.578394 (Simulation time: 0 hr 20 min 10 sec) 
Finished CPU 0 instructions: 200000000 cycles: 345784948 cumulative IPC: 0.578394 (Simulation time: 0 hr 20 min 10 sec) 
 Instruction ID: 250000098

ChampSim completed all CPUs

Region of Interest Statistics

CPU 0 cumulative IPC: 0.578394 instructions: 200000000 cycles: 345784948
ITLB SPEC fills:          0  NON-SPEC fills:          0
ITLB Test counter :          0
ITLB Leapfrog:          0
ITLB MSHR merge:          0
ITLB TOTAL     ACCESS:   33782580  HIT:   33782578  MISS:          2  HIT %:        100  MISS %: 5.92021e-06   MPKI: 1e-05
ITLB LOAD TRANSLATION NON_SPEC    ACCESS:   33782580  HIT:   33782578  MISS:          2  HIT %:        100  MISS %: 5.92021e-06   MPKI: 1e-05
ITLB PREFETCH  REQUESTED:          0  ISSUED:          0  USEFUL:          0  USELESS:          0
ITLB USEFUL LOAD PREFETCHES:          0 PREFETCH ISSUED TO LOWER LEVEL:          0  ACCURACY: -nan
ITLB TIMELY PREFETCHES:          0 LATE PREFETCHES: 0 DROPPED PREFETCHES: 0
ITLB COMMIT LATE PREFETCHES: 0 NORMAL LATE: 0 MISSED OPPORTUNITY: 0 UNCOVERED: 0
ITLB PREFETCHES SAME FILL-ORIGIN LEVEL: 0 DIFFERENT FILL-ORIGIN LEVEL: 0
ITLB AVERAGE MISS LATENCY: 703.5 cycles
ITLB AVERAGE MISS LATENCY LOAD: -nan cycles
ITLB AVERAGE MISS LATENCY PREFETCH: -nan cycles
ITLB AVERAGE MSHR OCCUPANCY: 0
ITLB MSHR FULL: 0
ITLB RQ	ACCESS:   42926176	FORWARD:          0	MERGED:    9143595	TO_CACHE:   33782581

DTLB SPEC fills:          0  NON-SPEC fills:          0
DTLB Test counter :          0
DTLB Leapfrog:          0
DTLB MSHR merge:          0
DTLB TOTAL     ACCESS:   58165640  HIT:   58135043  MISS:      30597  HIT %:    99.9474  MISS %:  0.0526032   MPKI: 0.152985
DTLB LOAD TRANSLATION NON_SPEC    ACCESS:   58165640  HIT:   58135043  MISS:      30597  HIT %:    99.9474  MISS %:  0.0526032   MPKI: 0.152985
DTLB PREFETCH  REQUESTED:          0  ISSUED:          0  USEFUL:          0  USELESS:          0
DTLB USEFUL LOAD PREFETCHES:          0 PREFETCH ISSUED TO LOWER LEVEL:          0  ACCURACY: -nan
DTLB TIMELY PREFETCHES:          0 LATE PREFETCHES: 0 DROPPED PREFETCHES: 0
DTLB COMMIT LATE PREFETCHES: 0 NORMAL LATE: 0 MISSED OPPORTUNITY: 0 UNCOVERED: 0
DTLB PREFETCHES SAME FILL-ORIGIN LEVEL: 0 DIFFERENT FILL-ORIGIN LEVEL: 0
DTLB AVERAGE MISS LATENCY: 179.988 cycles
DTLB AVERAGE MISS LATENCY LOAD: -nan cycles
DTLB AVERAGE MISS LATENCY PREFETCH: -nan cycles
DTLB AVERAGE MSHR OCCUPANCY: 0.0100771
DTLB MSHR FULL: 0
DTLB RQ	ACCESS:   67423238	FORWARD:          0	MERGED:    9190783	TO_CACHE:   58232455

STLB SPEC fills:          0  NON-SPEC fills:          0
STLB Test counter :          0
STLB Leapfrog:          0
STLB MSHR merge:          0
STLB TOTAL     ACCESS:    4728169  HIT:    4699022  MISS:      29147  HIT %:    99.3835  MISS %:   0.616454   MPKI: 0.145735
STLB LOAD TRANSLATION NON_SPEC    ACCESS:      30599  HIT:      14046  MISS:      16553  HIT %:    45.9035  MISS %:    54.0965   MPKI: 0.082765
STLB TRANSLATION FROM L1D PREFETCHER NON_SPEC    ACCESS:    4697570  HIT:    4684976  MISS:      12594  HIT %:    99.7319  MISS %:   0.268096   MPKI: 0.06297
STLB PREFETCH  REQUESTED:          0  ISSUED:          0  USEFUL:      12591  USELESS:          2
STLB USEFUL LOAD PREFETCHES:      12591 PREFETCH ISSUED TO LOWER LEVEL:          0  ACCURACY: inf
STLB TIMELY PREFETCHES:      12591 LATE PREFETCHES: 1491 DROPPED PREFETCHES: 77535
STLB COMMIT LATE PREFETCHES: 0 NORMAL LATE: 1491 MISSED OPPORTUNITY: 0 UNCOVERED: 18446744073709550125
STLB PREFETCHES SAME FILL-ORIGIN LEVEL: 0 DIFFERENT FILL-ORIGIN LEVEL: 0
STLB AVERAGE MISS LATENCY: 268.242 cycles
STLB AVERAGE MISS LATENCY LOAD: -nan cycles
STLB AVERAGE MISS LATENCY PREFETCH: -nan cycles
STLB AVERAGE MSHR OCCUPANCY: 0.0721374
STLB MSHR FULL: 0
STLB RQ	ACCESS:   25247338	FORWARD:          0	MERGED:   20421879	TO_CACHE:    4825459

STLB Hit, L1D data hit: 0
STLB Hit, L2C data hit: 0
STLB Hit, LLC data hit: 0
STLB Hit, LLC data miss: 0
STLB STLB hints to L2: 0
L0D SPEC fills:   20532668  NON-SPEC fills:          0
L0D TimeGuard Request with older TS:     901508 Restricted eviction:     547630 read:    3993355
L0D Test counter :          0
L0D Leapfrog:          0
L0D MSHR merge:     443525
L0D TOTAL     ACCESS:   41926691  HIT:    5387006  MISS:   36539685  HIT %:    12.8486  MISS %:    87.1514   MPKI: 182.698
L0D LOAD      TOTAL       ACCESS:   41926691  HIT:    5387006  MISS:   36539685  HIT %:    12.8486  MISS %:    87.1514   MPKI: 182.698
L0D LOAD      NON_SPEC    ACCESS:   15479956  HIT:      20568  MISS:   15459388  HIT %:   0.132869  MISS %:    99.8671   MPKI: 77.2969
L0D LOAD      SPEC        ACCESS:   26446735  HIT:    5366438  MISS:   21080297  HIT %:    20.2915  MISS %:    79.7085   MPKI: 105.401
L0D PREFETCH  REQUESTED:          0  ISSUED:          0  USEFUL:          0  USELESS:          0
L0D USEFUL LOAD PREFETCHES:          0 PREFETCH ISSUED TO LOWER LEVEL:          0  ACCURACY: -nan
L0D TIMELY PREFETCHES:          0 LATE PREFETCHES: 0 DROPPED PREFETCHES: 0
L0D COMMIT LATE PREFETCHES: 0 NORMAL LATE: 0 MISSED OPPORTUNITY: 0 UNCOVERED: 36539685
L0D PREFETCHES SAME FILL-ORIGIN LEVEL: 0 DIFFERENT FILL-ORIGIN LEVEL: 0
L0D AVERAGE MISS LATENCY: 6.21673 cycles
L0D AVERAGE MISS LATENCY LOAD: 6.21673 cycles
L0D AVERAGE MISS LATENCY PREFETCH: -nan cycles
L0D AVERAGE MSHR OCCUPANCY: 0.674076
L0D MSHR FULL: 0.000223794
L0D RQ	ACCESS:   48653102	FORWARD:          0	MERGED:    6282894	TO_CACHE:   42370208
L0D WQ	ACCESS:   25053030	FORWARD:          0	MERGED:          0	TO_CACHE:   25053030

L1D SPEC fills:          0  NON-SPEC fills:      10166
L1D Test counter :          0
L1D Leapfrog:          0
L1D MSHR merge:      48449
L1D TOTAL     ACCESS:  108201595  HIT:  106808579  MISS:    1393016  HIT %:    98.7126  MISS %:    1.28743   MPKI: 6.96508
L1D LOAD      TOTAL       ACCESS:   36538287  HIT:   36403056  MISS:     135231  HIT %:    99.6299  MISS %:   0.370108   MPKI: 0.676155
L1D LOAD      NON_SPEC    ACCESS:   15459317  HIT:   15449151  MISS:      10166  HIT %:    99.9342  MISS %:  0.0657597   MPKI: 0.05083
L1D LOAD      SPEC        ACCESS:   21078970  HIT:   20953905  MISS:     125065  HIT %:    99.4067  MISS %:   0.593316   MPKI: 0.625325
L1D RFO       NON_SPEC    ACCESS:   21496116  HIT:   21077787  MISS:     418329  HIT %:    98.0539  MISS %:    1.94607   MPKI: 2.09165
L1D PREFETCH  NON_SPEC    ACCESS:   20483933  HIT:   19759775  MISS:     724158  HIT %:    96.4648  MISS %:    3.53525   MPKI: 3.62079
L1D COMMIT LOAD NON_SPEC    ACCESS:    9597533  HIT:    9593969  MISS:       3564  HIT %:    99.9629  MISS %:  0.0371345   MPKI: 0.01782
L1D COMMIT WRITE NON_SPEC    ACCESS:   20085726  HIT:   19973992  MISS:     111734  HIT %:    99.4437  MISS %:   0.556286   MPKI: 0.55867
L1D PREFETCH  REQUESTED:   43844462  ISSUED:   27666734  USEFUL:     668043  USELESS:      56141
L1D USEFUL LOAD PREFETCHES:     668043 PREFETCH ISSUED TO LOWER LEVEL:    5099604  ACCURACY: 13.0999
L1D TIMELY PREFETCHES:     668043 LATE PREFETCHES: 47066 DROPPED PREFETCHES: 172546
L1D COMMIT LATE PREFETCHES: 0 NORMAL LATE: 47066 MISSED OPPORTUNITY: 0 UNCOVERED: 88165
L1D PREFETCHES SAME FILL-ORIGIN LEVEL: 788149 DIFFERENT FILL-ORIGIN LEVEL: 4311455
L1D AVERAGE MISS LATENCY: 364.147 cycles
L1D AVERAGE MISS LATENCY LOAD: 261.928 cycles
L1D AVERAGE MISS LATENCY PREFETCH: 287.8 cycles
L1D AVERAGE MSHR OCCUPANCY: 3.03388
L1D MSHR FULL: 0.111721
L1D RQ	ACCESS:   49491852	FORWARD:          0	MERGED:    3207056	TO_CACHE:   46140014
L1D WQ	ACCESS:   45226198	FORWARD:     144782	MERGED:    1545214	TO_CACHE:   43680984
L1D PQ	ACCESS:   27666734	FORWARD:          0	MERGED:    2449995	TO_CACHE:   25216739

L1D UNIQUE REGIONS ACCESSED: 0
L1D REGIONS CONFLICTS: 0
L1D Cross Page Prefetch Requests: 2880810
L1D Same Page Prefetch Requests: 31834246
L1D ROI Sum of L1D PQ occupancy: 623857170
L1D PREFETCHES PUSHED FROM L2C: 0
L1I SPEC fills:          0  NON-SPEC fills:          0
L1I Test counter :          0
L1I Leapfrog:          0
L1I MSHR merge:         11
L1I TOTAL     ACCESS:   42926164  HIT:   42926128  MISS:         36  HIT %:    99.9999  MISS %: 8.38649e-05   MPKI: 0.00018
L1I LOAD      TOTAL       ACCESS:   42926164  HIT:   42926128  MISS:         36  HIT %:    99.9999  MISS %: 8.38649e-05   MPKI: 0.00018
L1I LOAD      NON_SPEC    ACCESS:   42926164  HIT:   42926128  MISS:         36  HIT %:    99.9999  MISS %: 8.38649e-05   MPKI: 0.00018
L1I PREFETCH  REQUESTED:          0  ISSUED:          0  USEFUL:          0  USELESS:          0
L1I USEFUL LOAD PREFETCHES:          0 PREFETCH ISSUED TO LOWER LEVEL:          0  ACCURACY: -nan
L1I TIMELY PREFETCHES:          0 LATE PREFETCHES: 0 DROPPED PREFETCHES: 0
L1I COMMIT LATE PREFETCHES: 0 NORMAL LATE: 0 MISSED OPPORTUNITY: 0 UNCOVERED: 36
L1I PREFETCHES SAME FILL-ORIGIN LEVEL: 0 DIFFERENT FILL-ORIGIN LEVEL: 0
L1I AVERAGE MISS LATENCY: 281.472 cycles
L1I AVERAGE MISS LATENCY LOAD: 281.472 cycles
L1I AVERAGE MISS LATENCY PREFETCH: -nan cycles
L1I AVERAGE MSHR OCCUPANCY: 6.98874e-07
L1I MSHR FULL: 0
L1I RQ	ACCESS:   56471132	FORWARD:          0	MERGED:   13544956	TO_CACHE:   42926176

BTB SPEC fills:          0  NON-SPEC fills:          0
BTB Test counter :          0
BTB Leapfrog:          0
BTB MSHR merge:          0
BTB TOTAL     ACCESS:   12980512  HIT:   11531272  MISS:    1449240  HIT %:    88.8353  MISS %:    11.1647   MPKI: 7.2462
BTB BRANCH_DIRECT_JUMP	ACCESS:    1449216  HIT:    1449208  MISS:          8
BTB BRANCH_INDIRECT	ACCESS:          0  HIT:          0  MISS:          0
BTB BRANCH_CONDITIONAL	ACCESS:    5734548  HIT:    5734517  MISS:         31
BTB BRANCH_DIRECT_CALL	ACCESS:    2898375  HIT:    2898365  MISS:         10
BTB BRANCH_INDIRECT_CALL	ACCESS:          0  HIT:          0  MISS:          0
BTB BRANCH_RETURN	ACCESS:    2898373  HIT:    1449182  MISS:    1449191
BTB BRANCH_OTHER ACCESS:          0  HIT:          0  MISS:          0

L2C SPEC fills:          0  NON-SPEC fills:       4054
L2C Test counter :          0
L2C Leapfrog:          0
L2C MSHR merge:       7324
L2C TOTAL     ACCESS:    5402501  HIT:    4049145  MISS:    1353356  HIT %:    74.9495  MISS %:    25.0505   MPKI: 6.76678
L2C LOAD      TOTAL       ACCESS:      88204  HIT:      62810  MISS:      25394  HIT %:    71.2099  MISS %:    28.7901   MPKI: 0.12697
L2C LOAD      NON_SPEC    ACCESS:       7584  HIT:       3494  MISS:       4090  HIT %:    46.0707  MISS %:    53.9293   MPKI: 0.02045
L2C LOAD      SPEC        ACCESS:      80620  HIT:      59316  MISS:      21304  HIT %:    73.5748  MISS %:    26.4252   MPKI: 0.10652
L2C RFO       NON_SPEC    ACCESS:     418329  HIT:          0  MISS:     418329  HIT %:          0  MISS %:        100   MPKI: 2.09165
L2C PREFETCH  NON_SPEC    ACCESS:    3161002  HIT:    2278140  MISS:     882862  HIT %:    72.0702  MISS %:    27.9298   MPKI: 4.41431
L2C WRITEBACK NON_SPEC    ACCESS:     418207  HIT:     417793  MISS:        414  HIT %:     99.901  MISS %:   0.098994   MPKI: 0.00207
L2C CLEAN_EVICTION NON_SPEC    ACCESS:     772970  HIT:     752819  MISS:      20151  HIT %:     97.393  MISS %:    2.60696   MPKI: 0.100755
L2C COMMIT LOAD NON_SPEC    ACCESS:       3550  HIT:       3457  MISS:         93  HIT %:    97.3803  MISS %:    2.61972   MPKI: 0.000465
L2C LOAD TRANSLATION NON_SPEC    ACCESS:      82293  HIT:      79802  MISS:       2491  HIT %:     96.973  MISS %:    3.02699   MPKI: 0.012455
L2C TRANSLATION FROM L1D PREFETCHER NON_SPEC    ACCESS:     457946  HIT:     454324  MISS:       3622  HIT %:    99.2091  MISS %:   0.790923   MPKI: 0.01811
L2C PREFETCH  REQUESTED:          0  ISSUED:          0  USEFUL:      60806  USELESS:     826541
L2C USEFUL LOAD PREFETCHES:      60806 PREFETCH ISSUED TO LOWER LEVEL:     890186  ACCURACY: 6.83071
L2C TIMELY PREFETCHES:      60806 LATE PREFETCHES: 7324 DROPPED PREFETCHES: 0
L2C COMMIT LATE PREFETCHES: 0 NORMAL LATE: 7324 MISSED OPPORTUNITY: 0 UNCOVERED: 18070
L2C PREFETCHES SAME FILL-ORIGIN LEVEL: 618322 DIFFERENT FILL-ORIGIN LEVEL: 0
L2C AVERAGE MISS LATENCY: 652.662 cycles
L2C AVERAGE MISS LATENCY LOAD: 525.754 cycles
L2C AVERAGE MISS LATENCY PREFETCH: 693.301 cycles
L2C AVERAGE MSHR OCCUPANCY: 26.1345
L2C MSHR FULL: 0.701655
L2C RQ	ACCESS:    1050333	FORWARD:          0	MERGED:          0	TO_CACHE:    1050322
L2C WQ	ACCESS:    1191184	FORWARD:         11	MERGED:          7	TO_CACHE:    1191177
L2C PQ	ACCESS:    4237137	FORWARD:          0	MERGED:      41171	TO_CACHE:    4195966

L2C Instructions Evicting Data 36
L2C Translations Evicting Data 6104
L2C Data Evicting Data 1299288
L2C Instructions Evicting Instructions 0
L2C Translations Evicting Instructions 0
L2C Data Evicting Instructions 36
L2C Instructions Evicting Translations 0
L2C Translations Evicting Translations 9
L2C Data Evicting Translations 6014
L2C Dense regions hint from L2: 0
PSCL5 SPEC fills:          0  NON-SPEC fills:          0
PSCL5 Test counter :          0
PSCL5 Leapfrog:          0
PSCL5 MSHR merge:          0
PSCL5 TOTAL     ACCESS:          0  HIT:          0  MISS:          0  HIT %:       -nan  MISS %:       -nan   MPKI: 0
PSCL5 PREFETCH  REQUESTED:          0  ISSUED:          0  USEFUL:          0  USELESS:          0
PSCL5 USEFUL LOAD PREFETCHES:          0 PREFETCH ISSUED TO LOWER LEVEL:          0  ACCURACY: -nan
PSCL5 TIMELY PREFETCHES:          0 LATE PREFETCHES: 0 DROPPED PREFETCHES: 0
PSCL5 COMMIT LATE PREFETCHES: 0 NORMAL LATE: 0 MISSED OPPORTUNITY: 0 UNCOVERED: 0
PSCL5 PREFETCHES SAME FILL-ORIGIN LEVEL: 0 DIFFERENT FILL-ORIGIN LEVEL: 0

PSCL4 SPEC fills:          0  NON-SPEC fills:          0
PSCL4 Test counter :          0
PSCL4 Leapfrog:          0
PSCL4 MSHR merge:          0
PSCL4 TOTAL     ACCESS:          0  HIT:          0  MISS:          0  HIT %:       -nan  MISS %:       -nan   MPKI: 0
PSCL4 PREFETCH  REQUESTED:          0  ISSUED:          0  USEFUL:          0  USELESS:          0
PSCL4 USEFUL LOAD PREFETCHES:          0 PREFETCH ISSUED TO LOWER LEVEL:          0  ACCURACY: -nan
PSCL4 TIMELY PREFETCHES:          0 LATE PREFETCHES: 0 DROPPED PREFETCHES: 0
PSCL4 COMMIT LATE PREFETCHES: 0 NORMAL LATE: 0 MISSED OPPORTUNITY: 0 UNCOVERED: 0
PSCL4 PREFETCHES SAME FILL-ORIGIN LEVEL: 0 DIFFERENT FILL-ORIGIN LEVEL: 0

PSCL3 SPEC fills:          0  NON-SPEC fills:          0
PSCL3 Test counter :          0
PSCL3 Leapfrog:          0
PSCL3 MSHR merge:          0
PSCL3 TOTAL     ACCESS:          0  HIT:          0  MISS:          0  HIT %:       -nan  MISS %:       -nan   MPKI: 0
PSCL3 PREFETCH  REQUESTED:          0  ISSUED:          0  USEFUL:          0  USELESS:          0
PSCL3 USEFUL LOAD PREFETCHES:          0 PREFETCH ISSUED TO LOWER LEVEL:          0  ACCURACY: -nan
PSCL3 TIMELY PREFETCHES:          0 LATE PREFETCHES: 0 DROPPED PREFETCHES: 0
PSCL3 COMMIT LATE PREFETCHES: 0 NORMAL LATE: 0 MISSED OPPORTUNITY: 0 UNCOVERED: 0
PSCL3 PREFETCHES SAME FILL-ORIGIN LEVEL: 0 DIFFERENT FILL-ORIGIN LEVEL: 0

PSCL2 SPEC fills:          0  NON-SPEC fills:          0
PSCL2 Test counter :          0
PSCL2 Leapfrog:          0
PSCL2 MSHR merge:          0
PSCL2 TOTAL     ACCESS:          0  HIT:          0  MISS:          0  HIT %:       -nan  MISS %:       -nan   MPKI: 0
PSCL2 PREFETCH  REQUESTED:          0  ISSUED:          0  USEFUL:          0  USELESS:          0
PSCL2 USEFUL LOAD PREFETCHES:          0 PREFETCH ISSUED TO LOWER LEVEL:          0  ACCURACY: -nan
PSCL2 TIMELY PREFETCHES:          0 LATE PREFETCHES: 0 DROPPED PREFETCHES: 0
PSCL2 COMMIT LATE PREFETCHES: 0 NORMAL LATE: 0 MISSED OPPORTUNITY: 0 UNCOVERED: 0
PSCL2 PREFETCHES SAME FILL-ORIGIN LEVEL: 0 DIFFERENT FILL-ORIGIN LEVEL: 0

LLC SPEC fills:          0  NON-SPEC fills:       3743
LLC Test counter :          0
LLC Leapfrog:          0
LLC MSHR merge:          0
LLC TOTAL     ACCESS:    2523397  HIT:    1177236  MISS:    1346161  HIT %:    46.6528  MISS %:    53.3472   MPKI: 6.73081
LLC LOAD      TOTAL       ACCESS:      18070  HIT:        223  MISS:      17847  HIT %:    1.23409  MISS %:    98.7659   MPKI: 0.089235
LLC LOAD      NON_SPEC    ACCESS:       3782  HIT:          3  MISS:       3779  HIT %:  0.0793231  MISS %:    99.9207   MPKI: 0.018895
LLC LOAD      SPEC        ACCESS:      14288  HIT:        220  MISS:      14068  HIT %:    1.53975  MISS %:    98.4602   MPKI: 0.07034
LLC RFO       NON_SPEC    ACCESS:     418329  HIT:          0  MISS:     418329  HIT %:          0  MISS %:        100   MPKI: 2.09165
LLC PREFETCH  NON_SPEC    ACCESS:     890186  HIT:        268  MISS:     889918  HIT %:  0.0301061  MISS %:    99.9699   MPKI: 4.44959
LLC WRITEBACK NON_SPEC    ACCESS:     417216  HIT:     416805  MISS:        411  HIT %:    99.9015  MISS %:  0.0985101   MPKI: 0.002055
LLC CLEAN_EVICTION NON_SPEC    ACCESS:     773390  HIT:     759916  MISS:      13474  HIT %:    98.2578  MISS %:     1.7422   MPKI: 0.06737
LLC COMMIT LOAD NON_SPEC    ACCESS:         93  HIT:         16  MISS:         77  HIT %:    17.2043  MISS %:    82.7957   MPKI: 0.000385
LLC LOAD TRANSLATION NON_SPEC    ACCESS:       2491  HIT:          8  MISS:       2483  HIT %:   0.321156  MISS %:    99.6788   MPKI: 0.012415
LLC TRANSLATION FROM L1D PREFETCHER NON_SPEC    ACCESS:       3622  HIT:          0  MISS:       3622  HIT %:          0  MISS %:        100   MPKI: 0.01811
LLC PREFETCH  REQUESTED:          0  ISSUED:          0  USEFUL:        239  USELESS:     894905
LLC USEFUL LOAD PREFETCHES:        239 PREFETCH ISSUED TO LOWER LEVEL:     889918  ACCURACY: 0.0268564
LLC TIMELY PREFETCHES:        239 LATE PREFETCHES: 0 DROPPED PREFETCHES: 0
LLC COMMIT LATE PREFETCHES: 0 NORMAL LATE: 0 MISSED OPPORTUNITY: 0 UNCOVERED: 17847
LLC PREFETCHES SAME FILL-ORIGIN LEVEL: 0 DIFFERENT FILL-ORIGIN LEVEL: 0
LLC AVERAGE MISS LATENCY: 629.769 cycles
LLC AVERAGE MISS LATENCY LOAD: 493.144 cycles
LLC AVERAGE MISS LATENCY PREFETCH: 667.715 cycles
LLC AVERAGE MSHR OCCUPANCY: 12.2352
LLC MSHR FULL: 0
LLC RQ	ACCESS:     442605	FORWARD:          0	MERGED:          0	TO_CACHE:     442605
LLC WQ	ACCESS:    1190606	FORWARD:          0	MERGED:          0	TO_CACHE:    1190606
LLC PQ	ACCESS:     890186	FORWARD:          0	MERGED:          0	TO_CACHE:     890186

LLC Dense regions hint to LLC: 0

RAW hits: 5911006
Loads Generated: 54564106
Loads sent to L1D: 48653102
Stores Generated: 25053030
Stores sent to L1D: 25053030
Major fault: 0 Minor fault: 17838
Allocated PAGES: 17838
Total Load insts: 59646336
Total Non-spec loads: 16967005
Percentage of speculative loads: 71.554

LeapFrogging counter: 514134
Commit hits: 20220701 miss: 12952171
Commit hit %: 60.9555 miss %: 39.0445
Commits not translated: 0
Loads retired: 135231
Stores retired: 25053030
Cache fills: 135231
L1D response latency: 261.928 cycles
Load retirement latency: 415.401 cycles
OOO test counter: 0
Discarded buffer inserts: 20220701 hits: 7072 hit %: 0.0349741
Filter prediction accuracy: -nan
LATENCY_FILL: 249.763 135972

DRAM Statistics
 CHANNEL 0
 RQ ROW_BUFFER_HIT:     340935  ROW_BUFFER_MISS:     991341
 DBUS_CONGESTED:         45
 WQ ROW_BUFFER_HIT:     205614  ROW_BUFFER_MISS:     986445  FULL:        797

 AVG_CONGESTED_CYCLE: 4
 All warmup complete: 2
Channel 0 Bank busy for read cycles: 0
Channel 0 Bank busy for write cycles: 0
Channel 0
Rank 0
0banks busy for read cycles: 237044850
0banks busy for write cycles: 164840
1banks busy for read cycles: 31131879
1banks busy for write cycles: 25718894
2banks busy for read cycles: 3256103
2banks busy for write cycles: 1565146
3banks busy for read cycles: 1270490
3banks busy for write cycles: 957747
4banks busy for read cycles: 1338129
4banks busy for write cycles: 858277
5banks busy for read cycles: 1647939
5banks busy for write cycles: 464049
6banks busy for read cycles: 2228750
6banks busy for write cycles: 308467
7banks busy for read cycles: 3802633
7banks busy for write cycles: 1286878
8banks busy for read cycles: 11611502
8banks busy for write cycles: 21128376

CPU 0 Branch Prediction Accuracy: 99.9742% MPKI: 0.027965 Average ROB Occupancy at Mispredict: 78.6415
Branch types
NOT_BRANCH: 178321210 89.1606%
BRANCH_DIRECT_JUMP: 1449216 0.724608%
BRANCH_INDIRECT: 0 0%
BRANCH_CONDITIONAL: 14432543 7.21627%
BRANCH_DIRECT_CALL: 2898375 1.44919%
BRANCH_INDIRECT_CALL: 0 0%
BRANCH_RETURN: 2898373 1.44919%
BRANCH_OTHER: 0 0%

DRAM PAGES: 1048576
Allocated PAGES: 17838
