
*** ChampSim Multicore Out-of-Order Simulator ***

Warmup Instructions: 50000000
Simulation Instructions: 200000000
Number of CPUs: 1
LLC sets: 2048
LLC ways: 16
L0D sets: 16
L0D ways: 2
ROB size: 352
LQ size: 128
SQ size: 72
Secure Berti: OFF
Berti: OFF
Berti Fill: OFF
On commit prefetching: OFF
Hit-based filter: OFF
Time-guarding: ON
Free-slotting: ON
Leap-frogging: ON
Train prefetcher on L0D bypass: OFF
No translation penalty for prefetchers: OFF
Prefetch to L0D only: OFF
Prefetch to L1D only: OFF
Clean evictions: ON
Commit loads: ON
Commit write: ON
Fill commit loads to L2C, LLC: ON
DRAM IO FREQUENCY: 6400
ROB SIZE: 352
Off-chip DRAM Size: 4096 MB Channels: 1 Width: 64-bit Data Rate: 6400 MT/s
CPU 0 runs /home/sumon/secure_berti/GhostMinion/../../traces/spec/654.roms_s-293B.champsimtrace.xz
.xz
BTB has LRU replacement policy
ITLB has LRU replacement policy
DTLB has LRU replacement policy
STLB has LRU replacement policy
L1I has LRU replacement policy
L0D has LRU replacement policy
History Sets: 8
History Ways: 16
BERTI Size: 16
BERTI Stride Size: 16
L1D has LRU replacement policy
L2C has LRU replacement policy
LLC has LRU replacement policy
Heartbeat CPU 0 instructions: 10000001 cycles: 3396081 heartbeat IPC: 2.94457 cumulative IPC: 2.94457 (Simulation time: 0 hr 0 min 36 sec) 
Heartbeat CPU 0 instructions: 20000003 cycles: 6863385 heartbeat IPC: 2.88409 cumulative IPC: 2.91401 (Simulation time: 0 hr 1 min 13 sec) 
Heartbeat CPU 0 instructions: 30000000 cycles: 10260413 heartbeat IPC: 2.94375 cumulative IPC: 2.92386 (Simulation time: 0 hr 1 min 49 sec) 
Heartbeat CPU 0 instructions: 40000003 cycles: 13727695 heartbeat IPC: 2.8841 cumulative IPC: 2.91382 (Simulation time: 0 hr 2 min 27 sec) 
Heartbeat CPU 0 instructions: 50000003 cycles: 17123746 heartbeat IPC: 2.9446 cumulative IPC: 2.91992 (Simulation time: 0 hr 3 min 3 sec) 

Warmup complete CPU 0 instructions: 50000003 cycles: 17123746 (Simulation time: 0 hr 3 min 3 sec) 

Heartbeat CPU 0 instructions: 60000002 cycles: 26966337 heartbeat IPC: 1.01599 cumulative IPC: 1.01599 (Simulation time: 0 hr 3 min 48 sec) 
Heartbeat CPU 0 instructions: 70000003 cycles: 36497858 heartbeat IPC: 1.04915 cumulative IPC: 1.03231 (Simulation time: 0 hr 4 min 30 sec) 
Heartbeat CPU 0 instructions: 80000002 cycles: 46178565 heartbeat IPC: 1.03298 cumulative IPC: 1.03253 (Simulation time: 0 hr 5 min 13 sec) 
Heartbeat CPU 0 instructions: 90000000 cycles: 55871804 heartbeat IPC: 1.03165 cumulative IPC: 1.03231 (Simulation time: 0 hr 5 min 54 sec) 
Heartbeat CPU 0 instructions: 100000003 cycles: 65516696 heartbeat IPC: 1.03682 cumulative IPC: 1.03321 (Simulation time: 0 hr 6 min 36 sec) 
Heartbeat CPU 0 instructions: 110000000 cycles: 75249073 heartbeat IPC: 1.0275 cumulative IPC: 1.03225 (Simulation time: 0 hr 7 min 18 sec) 
Heartbeat CPU 0 instructions: 120000000 cycles: 84811451 heartbeat IPC: 1.04576 cumulative IPC: 1.03416 (Simulation time: 0 hr 8 min 0 sec) 
Heartbeat CPU 0 instructions: 130000000 cycles: 94830052 heartbeat IPC: 0.998143 cumulative IPC: 1.02952 (Simulation time: 0 hr 8 min 44 sec) 
Heartbeat CPU 0 instructions: 140000003 cycles: 104618290 heartbeat IPC: 1.02163 cumulative IPC: 1.02864 (Simulation time: 0 hr 9 min 31 sec) 
Heartbeat CPU 0 instructions: 150000000 cycles: 114391968 heartbeat IPC: 1.02316 cumulative IPC: 1.02808 (Simulation time: 0 hr 10 min 18 sec) 
Heartbeat CPU 0 instructions: 160000000 cycles: 124161509 heartbeat IPC: 1.02359 cumulative IPC: 1.02767 (Simulation time: 0 hr 11 min 4 sec) 
Heartbeat CPU 0 instructions: 170000003 cycles: 133937762 heartbeat IPC: 1.02289 cumulative IPC: 1.02727 (Simulation time: 0 hr 11 min 51 sec) 
Heartbeat CPU 0 instructions: 180000001 cycles: 143692402 heartbeat IPC: 1.02515 cumulative IPC: 1.02711 (Simulation time: 0 hr 12 min 38 sec) 
Heartbeat CPU 0 instructions: 190000003 cycles: 153460207 heartbeat IPC: 1.02377 cumulative IPC: 1.02687 (Simulation time: 0 hr 13 min 25 sec) 
Heartbeat CPU 0 instructions: 200000001 cycles: 163232113 heartbeat IPC: 1.02334 cumulative IPC: 1.02664 (Simulation time: 0 hr 14 min 13 sec) 
Heartbeat CPU 0 instructions: 210000001 cycles: 172995136 heartbeat IPC: 1.02427 cumulative IPC: 1.02649 (Simulation time: 0 hr 14 min 59 sec) 
Heartbeat CPU 0 instructions: 220000000 cycles: 182760471 heartbeat IPC: 1.02403 cumulative IPC: 1.02634 (Simulation time: 0 hr 15 min 44 sec) 
Heartbeat CPU 0 instructions: 230000000 cycles: 192523022 heartbeat IPC: 1.02432 cumulative IPC: 1.02623 (Simulation time: 0 hr 16 min 29 sec) 
Heartbeat CPU 0 instructions: 240000002 cycles: 202301689 heartbeat IPC: 1.02263 cumulative IPC: 1.02604 (Simulation time: 0 hr 17 min 14 sec) 
Heartbeat CPU 0 instructions: 250000002 cycles: 212074524 heartbeat IPC: 1.02324 cumulative IPC: 1.0259 (Simulation time: 0 hr 17 min 58 sec) 
Finished CPU 0 instructions: 200000003 cycles: 194950779 cumulative IPC: 1.0259 (Simulation time: 0 hr 17 min 58 sec) 
 Instruction ID: 250000053

ChampSim completed all CPUs

Region of Interest Statistics

CPU 0 cumulative IPC: 1.0259 instructions: 200000003 cycles: 194950779
ITLB SPEC fills:          0  NON-SPEC fills:          0
ITLB Test counter :          0
ITLB Leapfrog:          0
ITLB MSHR merge:          0
ITLB TOTAL     ACCESS:   27327907  HIT:   27327891  MISS:         16  HIT %:    99.9999  MISS %: 5.85482e-05   MPKI: 8e-05
ITLB LOAD TRANSLATION NON_SPEC    ACCESS:   27327907  HIT:   27327891  MISS:         16  HIT %:    99.9999  MISS %: 5.85482e-05   MPKI: 8e-05
ITLB PREFETCH  REQUESTED:          0  ISSUED:          0  USEFUL:          0  USELESS:          0
ITLB USEFUL LOAD PREFETCHES:          0 PREFETCH ISSUED TO LOWER LEVEL:          0  ACCURACY: -nan
ITLB TIMELY PREFETCHES:          0 LATE PREFETCHES: 0 DROPPED PREFETCHES: 0
ITLB COMMIT LATE PREFETCHES: 0 NORMAL LATE: 0 MISSED OPPORTUNITY: 0 UNCOVERED: 0
ITLB PREFETCHES SAME FILL-ORIGIN LEVEL: 0 DIFFERENT FILL-ORIGIN LEVEL: 0
ITLB AVERAGE MISS LATENCY: 282.75 cycles
ITLB AVERAGE MISS LATENCY LOAD: -nan cycles
ITLB AVERAGE MISS LATENCY PREFETCH: -nan cycles
ITLB AVERAGE MSHR OCCUPANCY: 1.09778e-07
ITLB MSHR FULL: 0
ITLB RQ	ACCESS:   34397874	FORWARD:          0	MERGED:    7069965	TO_CACHE:   27327909

DTLB SPEC fills:          0  NON-SPEC fills:          0
DTLB Test counter :          0
DTLB Leapfrog:          0
DTLB MSHR merge:          0
DTLB TOTAL     ACCESS:   60052297  HIT:   59972219  MISS:      80078  HIT %:    99.8667  MISS %:   0.133347   MPKI: 0.40039
DTLB LOAD TRANSLATION NON_SPEC    ACCESS:   60052297  HIT:   59972219  MISS:      80078  HIT %:    99.8667  MISS %:   0.133347   MPKI: 0.40039
DTLB PREFETCH  REQUESTED:          0  ISSUED:          0  USEFUL:          0  USELESS:          0
DTLB USEFUL LOAD PREFETCHES:          0 PREFETCH ISSUED TO LOWER LEVEL:          0  ACCURACY: -nan
DTLB TIMELY PREFETCHES:          0 LATE PREFETCHES: 0 DROPPED PREFETCHES: 0
DTLB COMMIT LATE PREFETCHES: 0 NORMAL LATE: 0 MISSED OPPORTUNITY: 0 UNCOVERED: 0
DTLB PREFETCHES SAME FILL-ORIGIN LEVEL: 0 DIFFERENT FILL-ORIGIN LEVEL: 0
DTLB AVERAGE MISS LATENCY: 337.618 cycles
DTLB AVERAGE MISS LATENCY LOAD: -nan cycles
DTLB AVERAGE MISS LATENCY PREFETCH: -nan cycles
DTLB AVERAGE MSHR OCCUPANCY: 0.0178239
DTLB MSHR FULL: 3.32788e-08
DTLB RQ	ACCESS:   68020845	FORWARD:          0	MERGED:    7922481	TO_CACHE:   60098364

STLB SPEC fills:          0  NON-SPEC fills:          0
STLB Test counter :          0
STLB Leapfrog:          0
STLB MSHR merge:          0
STLB TOTAL     ACCESS:   15548206  HIT:   15500365  MISS:      47841  HIT %:    99.6923  MISS %:   0.307695   MPKI: 0.239205
STLB LOAD TRANSLATION NON_SPEC    ACCESS:      80094  HIT:      32260  MISS:      47834  HIT %:    40.2777  MISS %:    59.7223   MPKI: 0.23917
STLB TRANSLATION FROM L1D PREFETCHER NON_SPEC    ACCESS:   15468112  HIT:   15468105  MISS:          7  HIT %:        100  MISS %: 4.52544e-05   MPKI: 3.5e-05
STLB PREFETCH  REQUESTED:          0  ISSUED:          0  USEFUL:          7  USELESS:          0
STLB USEFUL LOAD PREFETCHES:          7 PREFETCH ISSUED TO LOWER LEVEL:          0  ACCURACY: inf
STLB TIMELY PREFETCHES:          7 LATE PREFETCHES: 5066 DROPPED PREFETCHES: 350881
STLB COMMIT LATE PREFETCHES: 0 NORMAL LATE: 5066 MISSED OPPORTUNITY: 0 UNCOVERED: 18446744073709546550
STLB PREFETCHES SAME FILL-ORIGIN LEVEL: 0 DIFFERENT FILL-ORIGIN LEVEL: 0
STLB AVERAGE MISS LATENCY: 550.82 cycles
STLB AVERAGE MISS LATENCY LOAD: -nan cycles
STLB AVERAGE MISS LATENCY PREFETCH: -nan cycles
STLB AVERAGE MSHR OCCUPANCY: 0.0929912
STLB MSHR FULL: 0
STLB RQ	ACCESS:   67146726	FORWARD:          0	MERGED:   51231964	TO_CACHE:   15914762

STLB Hit, L1D data hit: 0
STLB Hit, L2C data hit: 0
STLB Hit, LLC data hit: 0
STLB Hit, LLC data miss: 0
STLB STLB hints to L2: 0
L0D SPEC fills:   33113925  NON-SPEC fills:          0
L0D TimeGuard Request with older TS:    1558253 Restricted eviction:    1412053 read:    2239622
L0D Test counter :          0
L0D Leapfrog:          0
L0D MSHR merge:    3955913
L0D TOTAL     ACCESS:   52656471  HIT:   10531965  MISS:   42124506  HIT %:    20.0013  MISS %:    79.9987   MPKI: 210.623
L0D LOAD      TOTAL       ACCESS:   52656471  HIT:   10531965  MISS:   42124506  HIT %:    20.0013  MISS %:    79.9987   MPKI: 210.623
L0D LOAD      NON_SPEC    ACCESS:    8927040  HIT:    1328506  MISS:    7598534  HIT %:    14.8818  MISS %:    85.1182   MPKI: 37.9927
L0D LOAD      SPEC        ACCESS:   43729431  HIT:    9203459  MISS:   34525972  HIT %:    21.0464  MISS %:    78.9536   MPKI: 172.63
L0D PREFETCH  REQUESTED:          0  ISSUED:          0  USEFUL:          0  USELESS:          0
L0D USEFUL LOAD PREFETCHES:          0 PREFETCH ISSUED TO LOWER LEVEL:          0  ACCURACY: -nan
L0D TIMELY PREFETCHES:          0 LATE PREFETCHES: 0 DROPPED PREFETCHES: 0
L0D COMMIT LATE PREFETCHES: 0 NORMAL LATE: 0 MISSED OPPORTUNITY: 0 UNCOVERED: 42124506
L0D PREFETCHES SAME FILL-ORIGIN LEVEL: 0 DIFFERENT FILL-ORIGIN LEVEL: 0
L0D AVERAGE MISS LATENCY: 5.50899 cycles
L0D AVERAGE MISS LATENCY LOAD: 5.50899 cycles
L0D AVERAGE MISS LATENCY PREFETCH: -nan cycles
L0D AVERAGE MSHR OCCUPANCY: 1.27148
L0D MSHR FULL: 1.65863e-05
L0D RQ	ACCESS:   73253811	FORWARD:          0	MERGED:   16641427	TO_CACHE:   56612384
L0D WQ	ACCESS:   11408461	FORWARD:          0	MERGED:          0	TO_CACHE:   11408461

L1D SPEC fills:          0  NON-SPEC fills:      13052
L1D Test counter :          0
L1D Leapfrog:          0
L1D MSHR merge:      27136
L1D TOTAL     ACCESS:  159305732  HIT:  156436689  MISS:    2869043  HIT %:     98.199  MISS %:    1.80097   MPKI: 14.3452
L1D LOAD      TOTAL       ACCESS:   42122754  HIT:   41990764  MISS:     131990  HIT %:    99.6867  MISS %:   0.313346   MPKI: 0.65995
L1D LOAD      NON_SPEC    ACCESS:    7598443  HIT:    7585391  MISS:      13052  HIT %:    99.8282  MISS %:   0.171772   MPKI: 0.06526
L1D LOAD      SPEC        ACCESS:   34524311  HIT:   34405373  MISS:     118938  HIT %:    99.6555  MISS %:   0.344505   MPKI: 0.59469
L1D RFO       NON_SPEC    ACCESS:    9805990  HIT:    9431465  MISS:     374525  HIT %:    96.1807  MISS %:    3.81935   MPKI: 1.87262
L1D PREFETCH  NON_SPEC    ACCESS:   61722594  HIT:   59476522  MISS:    2246072  HIT %:     96.361  MISS %:    3.63898   MPKI: 11.2304
L1D COMMIT LOAD NON_SPEC    ACCESS:   13752671  HIT:   13748694  MISS:       3977  HIT %:    99.9711  MISS %:   0.028918   MPKI: 0.019885
L1D COMMIT WRITE NON_SPEC    ACCESS:   31901723  HIT:   31789244  MISS:     112479  HIT %:    99.6474  MISS %:    0.35258   MPKI: 0.562395
L1D PREFETCH  REQUESTED:  123703841  ISSUED:   68387643  USEFUL:    2052626  USELESS:     193424
L1D USEFUL LOAD PREFETCHES:    2052626 PREFETCH ISSUED TO LOWER LEVEL:    5938378  ACCURACY: 34.5654
L1D TIMELY PREFETCHES:    2052626 LATE PREFETCHES: 25394 DROPPED PREFETCHES: 997191
L1D COMMIT LATE PREFETCHES: 0 NORMAL LATE: 25394 MISSED OPPORTUNITY: 0 UNCOVERED: 106596
L1D PREFETCHES SAME FILL-ORIGIN LEVEL: 2271469 DIFFERENT FILL-ORIGIN LEVEL: 3666909
L1D AVERAGE MISS LATENCY: 137.591 cycles
L1D AVERAGE MISS LATENCY LOAD: 117.825 cycles
L1D AVERAGE MISS LATENCY PREFETCH: 133.136 cycles
L1D AVERAGE MSHR OCCUPANCY: 1.90222
L1D MSHR FULL: 0.00100373
L1D RQ	ACCESS:   74202773	FORWARD:          0	MERGED:   18258987	TO_CACHE:   55880440
L1D WQ	ACCESS:   43308897	FORWARD:      63346	MERGED:     905442	TO_CACHE:   42403455
L1D PQ	ACCESS:   68387643	FORWARD:          0	MERGED:    1321011	TO_CACHE:   67066632

L1D UNIQUE REGIONS ACCESSED: 0
L1D REGIONS CONFLICTS: 0
L1D Cross Page Prefetch Requests: 3961731
L1D Same Page Prefetch Requests: 72695478
L1D ROI Sum of L1D PQ occupancy: 1314479275
L1D PREFETCHES PUSHED FROM L2C: 0
L1I SPEC fills:          0  NON-SPEC fills:          0
L1I Test counter :          0
L1I Leapfrog:          0
L1I MSHR merge:         57
L1I TOTAL     ACCESS:   34397818  HIT:   34397645  MISS:        173  HIT %:    99.9995  MISS %: 0.000502939   MPKI: 0.000865
L1I LOAD      TOTAL       ACCESS:   34397818  HIT:   34397645  MISS:        173  HIT %:    99.9995  MISS %: 0.000502939   MPKI: 0.000865
L1I LOAD      NON_SPEC    ACCESS:   34397818  HIT:   34397645  MISS:        173  HIT %:    99.9995  MISS %: 0.000502939   MPKI: 0.000865
L1I PREFETCH  REQUESTED:          0  ISSUED:          0  USEFUL:          0  USELESS:          0
L1I USEFUL LOAD PREFETCHES:          0 PREFETCH ISSUED TO LOWER LEVEL:          0  ACCURACY: -nan
L1I TIMELY PREFETCHES:          0 LATE PREFETCHES: 0 DROPPED PREFETCHES: 0
L1I COMMIT LATE PREFETCHES: 0 NORMAL LATE: 0 MISSED OPPORTUNITY: 0 UNCOVERED: 173
L1I PREFETCHES SAME FILL-ORIGIN LEVEL: 0 DIFFERENT FILL-ORIGIN LEVEL: 0
L1I AVERAGE MISS LATENCY: 226.965 cycles
L1I AVERAGE MISS LATENCY LOAD: 226.965 cycles
L1I AVERAGE MISS LATENCY PREFETCH: -nan cycles
L1I AVERAGE MSHR OCCUPANCY: 4.59331e-06
L1I MSHR FULL: 0
L1I RQ	ACCESS:   50594684	FORWARD:          0	MERGED:   16196810	TO_CACHE:   34397874

BTB SPEC fills:          0  NON-SPEC fills:          0
BTB Test counter :          0
BTB Leapfrog:          0
BTB MSHR merge:          0
BTB TOTAL     ACCESS:    7097426  HIT:    7097294  MISS:        132  HIT %:    99.9981  MISS %: 0.00185983   MPKI: 0.00066
BTB BRANCH_DIRECT_JUMP	ACCESS:        147  HIT:        134  MISS:         13
BTB BRANCH_INDIRECT	ACCESS:          0  HIT:          0  MISS:          0
BTB BRANCH_CONDITIONAL	ACCESS:    7097021  HIT:    7096962  MISS:         59
BTB BRANCH_DIRECT_CALL	ACCESS:        129  HIT:         99  MISS:         30
BTB BRANCH_INDIRECT_CALL	ACCESS:          0  HIT:          0  MISS:          0
BTB BRANCH_RETURN	ACCESS:        129  HIT:         99  MISS:         30
BTB BRANCH_OTHER ACCESS:          0  HIT:          0  MISS:          0

L2C SPEC fills:          0  NON-SPEC fills:       1372
L2C Test counter :          0
L2C Leapfrog:          0
L2C MSHR merge:        473
L2C TOTAL     ACCESS:   10795205  HIT:    8101584  MISS:    2693621  HIT %:     75.048  MISS %:     24.952   MPKI: 13.4681
L2C LOAD      TOTAL       ACCESS:     106676  HIT:      34760  MISS:      71916  HIT %:    32.5846  MISS %:    67.4154   MPKI: 0.35958
L2C LOAD      NON_SPEC    ACCESS:      13003  HIT:      11458  MISS:       1545  HIT %:    88.1181  MISS %:    11.8819   MPKI: 0.007725
L2C LOAD      SPEC        ACCESS:      93673  HIT:      23302  MISS:      70371  HIT %:    24.8759  MISS %:    75.1241   MPKI: 0.351855
L2C RFO       NON_SPEC    ACCESS:     374525  HIT:       1819  MISS:     372706  HIT %:   0.485682  MISS %:    99.5143   MPKI: 1.86353
L2C PREFETCH  NON_SPEC    ACCESS:    5748962  HIT:    3628521  MISS:    2120441  HIT %:    63.1161  MISS %:    36.8839   MPKI: 10.6022
L2C WRITEBACK NON_SPEC    ACCESS:     428808  HIT:     417498  MISS:      11310  HIT %:    97.3625  MISS %:    2.63754   MPKI: 0.05655
L2C CLEAN_EVICTION NON_SPEC    ACCESS:    2114361  HIT:    2040482  MISS:      73879  HIT %:    96.5058  MISS %:    3.49415   MPKI: 0.369395
L2C COMMIT LOAD NON_SPEC    ACCESS:       3962  HIT:       1101  MISS:       2861  HIT %:     27.789  MISS %:     72.211   MPKI: 0.014305
L2C LOAD TRANSLATION NON_SPEC    ACCESS:     238900  HIT:     202274  MISS:      36626  HIT %:    84.6689  MISS %:    15.3311   MPKI: 0.18313
L2C TRANSLATION FROM L1D PREFETCHER NON_SPEC    ACCESS:    1779011  HIT:    1775129  MISS:       3882  HIT %:    99.7818  MISS %:   0.218211   MPKI: 0.01941
L2C PREFETCH  REQUESTED:          0  ISSUED:          0  USEFUL:      12866  USELESS:    2106608
L2C USEFUL LOAD PREFETCHES:      12866 PREFETCH ISSUED TO LOWER LEVEL:    2120925  ACCURACY: 0.606622
L2C TIMELY PREFETCHES:      12866 LATE PREFETCHES: 478 DROPPED PREFETCHES: 0
L2C COMMIT LATE PREFETCHES: 0 NORMAL LATE: 478 MISSED OPPORTUNITY: 0 UNCOVERED: 71438
L2C PREFETCHES SAME FILL-ORIGIN LEVEL: 537729 DIFFERENT FILL-ORIGIN LEVEL: 0
L2C AVERAGE MISS LATENCY: 168.456 cycles
L2C AVERAGE MISS LATENCY LOAD: 156.593 cycles
L2C AVERAGE MISS LATENCY PREFETCH: 171.053 cycles
L2C AVERAGE MSHR OCCUPANCY: 1.89393
L2C MSHR FULL: 0
L2C RQ	ACCESS:    2503181	FORWARD:          0	MERGED:          0	TO_CACHE:    2503073
L2C WQ	ACCESS:    2543169	FORWARD:        602	MERGED:          0	TO_CACHE:    2543169
L2C PQ	ACCESS:    5938378	FORWARD:          0	MERGED:          3	TO_CACHE:    5937881

L2C Instructions Evicting Data 173
L2C Translations Evicting Data 39916
L2C Data Evicting Data 2459188
L2C Instructions Evicting Instructions 0
L2C Translations Evicting Instructions 3
L2C Data Evicting Instructions 163
L2C Instructions Evicting Translations 0
L2C Translations Evicting Translations 589
L2C Data Evicting Translations 38029
L2C Dense regions hint from L2: 0
PSCL5 SPEC fills:          0  NON-SPEC fills:          0
PSCL5 Test counter :          0
PSCL5 Leapfrog:          0
PSCL5 MSHR merge:          0
PSCL5 TOTAL     ACCESS:          0  HIT:          0  MISS:          0  HIT %:       -nan  MISS %:       -nan   MPKI: 0
PSCL5 PREFETCH  REQUESTED:          0  ISSUED:          0  USEFUL:          0  USELESS:          0
PSCL5 USEFUL LOAD PREFETCHES:          0 PREFETCH ISSUED TO LOWER LEVEL:          0  ACCURACY: -nan
PSCL5 TIMELY PREFETCHES:          0 LATE PREFETCHES: 0 DROPPED PREFETCHES: 0
PSCL5 COMMIT LATE PREFETCHES: 0 NORMAL LATE: 0 MISSED OPPORTUNITY: 0 UNCOVERED: 0
PSCL5 PREFETCHES SAME FILL-ORIGIN LEVEL: 0 DIFFERENT FILL-ORIGIN LEVEL: 0

PSCL4 SPEC fills:          0  NON-SPEC fills:          0
PSCL4 Test counter :          0
PSCL4 Leapfrog:          0
PSCL4 MSHR merge:          0
PSCL4 TOTAL     ACCESS:          0  HIT:          0  MISS:          0  HIT %:       -nan  MISS %:       -nan   MPKI: 0
PSCL4 PREFETCH  REQUESTED:          0  ISSUED:          0  USEFUL:          0  USELESS:          0
PSCL4 USEFUL LOAD PREFETCHES:          0 PREFETCH ISSUED TO LOWER LEVEL:          0  ACCURACY: -nan
PSCL4 TIMELY PREFETCHES:          0 LATE PREFETCHES: 0 DROPPED PREFETCHES: 0
PSCL4 COMMIT LATE PREFETCHES: 0 NORMAL LATE: 0 MISSED OPPORTUNITY: 0 UNCOVERED: 0
PSCL4 PREFETCHES SAME FILL-ORIGIN LEVEL: 0 DIFFERENT FILL-ORIGIN LEVEL: 0

PSCL3 SPEC fills:          0  NON-SPEC fills:          0
PSCL3 Test counter :          0
PSCL3 Leapfrog:          0
PSCL3 MSHR merge:          0
PSCL3 TOTAL     ACCESS:          0  HIT:          0  MISS:          0  HIT %:       -nan  MISS %:       -nan   MPKI: 0
PSCL3 PREFETCH  REQUESTED:          0  ISSUED:          0  USEFUL:          0  USELESS:          0
PSCL3 USEFUL LOAD PREFETCHES:          0 PREFETCH ISSUED TO LOWER LEVEL:          0  ACCURACY: -nan
PSCL3 TIMELY PREFETCHES:          0 LATE PREFETCHES: 0 DROPPED PREFETCHES: 0
PSCL3 COMMIT LATE PREFETCHES: 0 NORMAL LATE: 0 MISSED OPPORTUNITY: 0 UNCOVERED: 0
PSCL3 PREFETCHES SAME FILL-ORIGIN LEVEL: 0 DIFFERENT FILL-ORIGIN LEVEL: 0

PSCL2 SPEC fills:          0  NON-SPEC fills:          0
PSCL2 Test counter :          0
PSCL2 Leapfrog:          0
PSCL2 MSHR merge:          0
PSCL2 TOTAL     ACCESS:          0  HIT:          0  MISS:          0  HIT %:       -nan  MISS %:       -nan   MPKI: 0
PSCL2 PREFETCH  REQUESTED:          0  ISSUED:          0  USEFUL:          0  USELESS:          0
PSCL2 USEFUL LOAD PREFETCHES:          0 PREFETCH ISSUED TO LOWER LEVEL:          0  ACCURACY: -nan
PSCL2 TIMELY PREFETCHES:          0 LATE PREFETCHES: 0 DROPPED PREFETCHES: 0
PSCL2 COMMIT LATE PREFETCHES: 0 NORMAL LATE: 0 MISSED OPPORTUNITY: 0 UNCOVERED: 0
PSCL2 PREFETCHES SAME FILL-ORIGIN LEVEL: 0 DIFFERENT FILL-ORIGIN LEVEL: 0

LLC SPEC fills:          0  NON-SPEC fills:       1053
LLC Test counter :          0
LLC Leapfrog:          0
LLC MSHR merge:          0
LLC TOTAL     ACCESS:    4954449  HIT:    2857019  MISS:    2097430  HIT %:    57.6657  MISS %:    42.3343   MPKI: 10.4871
LLC LOAD      TOTAL       ACCESS:      71443  HIT:       7119  MISS:      64324  HIT %:    9.96459  MISS %:    90.0354   MPKI: 0.32162
LLC LOAD      NON_SPEC    ACCESS:       1519  HIT:        293  MISS:       1226  HIT %:     19.289  MISS %:     80.711   MPKI: 0.00613
LLC LOAD      SPEC        ACCESS:      69924  HIT:       6826  MISS:      63098  HIT %:    9.76203  MISS %:     90.238   MPKI: 0.31549
LLC RFO       NON_SPEC    ACCESS:     372705  HIT:      71723  MISS:     300982  HIT %:    19.2439  MISS %:    80.7561   MPKI: 1.50491
LLC PREFETCH  NON_SPEC    ACCESS:    2120918  HIT:     476107  MISS:    1644811  HIT %:    22.4482  MISS %:    77.5518   MPKI: 8.22405
LLC WRITEBACK NON_SPEC    ACCESS:     412402  HIT:     407698  MISS:       4704  HIT %:    98.8594  MISS %:    1.14063   MPKI: 0.02352
LLC CLEAN_EVICTION NON_SPEC    ACCESS:    1933616  HIT:    1870912  MISS:      62704  HIT %:    96.7572  MISS %:    3.24284   MPKI: 0.31352
LLC COMMIT LOAD NON_SPEC    ACCESS:       2857  HIT:        662  MISS:       2195  HIT %:    23.1712  MISS %:    76.8288   MPKI: 0.010975
LLC LOAD TRANSLATION NON_SPEC    ACCESS:      36626  HIT:      22596  MISS:      14030  HIT %:    61.6939  MISS %:    38.3061   MPKI: 0.07015
LLC TRANSLATION FROM L1D PREFETCHER NON_SPEC    ACCESS:       3882  HIT:        202  MISS:       3680  HIT %:     5.2035  MISS %:    94.7965   MPKI: 0.0184
LLC PREFETCH  REQUESTED:          0  ISSUED:          0  USEFUL:      30813  USELESS:    1596882
LLC USEFUL LOAD PREFETCHES:      30813 PREFETCH ISSUED TO LOWER LEVEL:    1644817  ACCURACY: 1.87334
LLC TIMELY PREFETCHES:      30813 LATE PREFETCHES: 0 DROPPED PREFETCHES: 0
LLC COMMIT LATE PREFETCHES: 0 NORMAL LATE: 0 MISSED OPPORTUNITY: 0 UNCOVERED: 64324
LLC PREFETCHES SAME FILL-ORIGIN LEVEL: 0 DIFFERENT FILL-ORIGIN LEVEL: 0
LLC AVERAGE MISS LATENCY: 177.883 cycles
LLC AVERAGE MISS LATENCY LOAD: 142.505 cycles
LLC AVERAGE MISS LATENCY PREFETCH: 180.418 cycles
LLC AVERAGE MSHR OCCUPANCY: 2.10183
LLC MSHR FULL: 0
LLC RQ	ACCESS:     487512	FORWARD:          0	MERGED:          0	TO_CACHE:     487512
LLC WQ	ACCESS:    2346018	FORWARD:          1	MERGED:          0	TO_CACHE:    2346018
LLC PQ	ACCESS:    2120925	FORWARD:          0	MERGED:          0	TO_CACHE:    2120924

LLC Dense regions hint to LLC: 0

RAW hits: 441473
Loads Generated: 73695285
Loads sent to L1D: 73253811
Stores Generated: 11408451
Stores sent to L1D: 11408461
Major fault: 0 Minor fault: 53394
Allocated PAGES: 53394
Total Load insts: 89177258
Total Non-spec loads: 10449478
Percentage of speculative loads: 88.2824

LeapFrogging counter: 3863
Commit hits: 31903146 miss: 32078270
Commit hit %: 49.8631 miss %: 50.1369
Commits not translated: 0
Loads retired: 131990
Stores retired: 11408461
Cache fills: 131990
L1D response latency: 117.825 cycles
Load retirement latency: 459.579 cycles
OOO test counter: 0
Discarded buffer inserts: 31903146 hits: 1206 hit %: 0.00378019
Filter prediction accuracy: -nan
LATENCY_FILL: 117.16 133481

DRAM Statistics
 CHANNEL 0
 RQ ROW_BUFFER_HIT:     433169  ROW_BUFFER_MISS:    1596634
 DBUS_CONGESTED:       3133
 WQ ROW_BUFFER_HIT:     570530  ROW_BUFFER_MISS:    1249745  FULL:        265

 AVG_CONGESTED_CYCLE: 5
 All warmup complete: 2
Channel 0 Bank busy for read cycles: 0
Channel 0 Bank busy for write cycles: 0
Channel 0
Rank 0
0banks busy for read cycles: 13330461
0banks busy for write cycles: 97311
1banks busy for read cycles: 45812028
1banks busy for write cycles: 9231706
2banks busy for read cycles: 29857580
2banks busy for write cycles: 9605948
3banks busy for read cycles: 13378455
3banks busy for write cycles: 5554992
4banks busy for read cycles: 8043125
4banks busy for write cycles: 4403743
5banks busy for read cycles: 4737390
5banks busy for write cycles: 3916079
6banks busy for read cycles: 2871625
6banks busy for write cycles: 4066786
7banks busy for read cycles: 2027998
7banks busy for write cycles: 6509840
8banks busy for read cycles: 3797887
8banks busy for write cycles: 27707826

CPU 0 Branch Prediction Accuracy: 99.9104% MPKI: 0.03179 Average ROB Occupancy at Mispredict: 56.5771
Branch types
NOT_BRANCH: 192900793 96.4504%
BRANCH_DIRECT_JUMP: 147 7.35e-05%
BRANCH_INDIRECT: 0 0%
BRANCH_CONDITIONAL: 7098474 3.54924%
BRANCH_DIRECT_CALL: 129 6.45e-05%
BRANCH_INDIRECT_CALL: 0 0%
BRANCH_RETURN: 129 6.45e-05%
BRANCH_OTHER: 0 0%

DRAM PAGES: 1048576
Allocated PAGES: 53394
