
*** ChampSim Multicore Out-of-Order Simulator ***

Warmup Instructions: 50000000
Simulation Instructions: 200000000
Number of CPUs: 1
LLC sets: 2048
LLC ways: 16
L0D sets: 16
L0D ways: 2
ROB size: 352
LQ size: 128
SQ size: 72
Secure Berti: OFF
Berti: OFF
Berti Fill: OFF
On commit prefetching: OFF
Hit-based filter: OFF
Time-guarding: ON
Free-slotting: ON
Leap-frogging: ON
Train prefetcher on L0D bypass: OFF
No translation penalty for prefetchers: OFF
Prefetch to L0D only: OFF
Prefetch to L1D only: OFF
Clean evictions: ON
Commit loads: ON
Commit write: ON
Fill commit loads to L2C, LLC: ON
DRAM IO FREQUENCY: 6400
ROB SIZE: 352
Off-chip DRAM Size: 4096 MB Channels: 1 Width: 64-bit Data Rate: 6400 MT/s
CPU 0 runs /home/sumon/secure_berti/GhostMinion/../../traces/spec/657.xz_s-2302B.champsimtrace.xz
.xz
BTB has LRU replacement policy
ITLB has LRU replacement policy
DTLB has LRU replacement policy
STLB has LRU replacement policy
L1I has LRU replacement policy
L0D has LRU replacement policy
History Sets: 8
History Ways: 16
BERTI Size: 16
BERTI Stride Size: 16
L1D has LRU replacement policy
L2C has LRU replacement policy
LLC has LRU replacement policy
Heartbeat CPU 0 instructions: 10000001 cycles: 3126670 heartbeat IPC: 3.19829 cumulative IPC: 3.19829 (Simulation time: 0 hr 0 min 31 sec) 
Heartbeat CPU 0 instructions: 20000002 cycles: 6257063 heartbeat IPC: 3.19449 cumulative IPC: 3.19639 (Simulation time: 0 hr 1 min 2 sec) 
Heartbeat CPU 0 instructions: 30000000 cycles: 9504458 heartbeat IPC: 3.07939 cumulative IPC: 3.15641 (Simulation time: 0 hr 1 min 33 sec) 
Heartbeat CPU 0 instructions: 40000003 cycles: 12634390 heartbeat IPC: 3.19496 cumulative IPC: 3.16596 (Simulation time: 0 hr 2 min 5 sec) 
Heartbeat CPU 0 instructions: 50000000 cycles: 15785297 heartbeat IPC: 3.17369 cumulative IPC: 3.1675 (Simulation time: 0 hr 2 min 37 sec) 

Warmup complete CPU 0 instructions: 50000004 cycles: 15785298 (Simulation time: 0 hr 2 min 37 sec) 

Heartbeat CPU 0 instructions: 60000002 cycles: 32631047 heartbeat IPC: 0.593622 cumulative IPC: 0.593621 (Simulation time: 0 hr 3 min 17 sec) 
Heartbeat CPU 0 instructions: 70000000 cycles: 48885734 heartbeat IPC: 0.615207 cumulative IPC: 0.604222 (Simulation time: 0 hr 3 min 59 sec) 
Heartbeat CPU 0 instructions: 80000003 cycles: 65522763 heartbeat IPC: 0.601069 cumulative IPC: 0.603167 (Simulation time: 0 hr 4 min 44 sec) 
Heartbeat CPU 0 instructions: 90000002 cycles: 82386567 heartbeat IPC: 0.592986 cumulative IPC: 0.600589 (Simulation time: 0 hr 5 min 29 sec) 
Heartbeat CPU 0 instructions: 100000001 cycles: 98645934 heartbeat IPC: 0.61503 cumulative IPC: 0.603423 (Simulation time: 0 hr 6 min 13 sec) 
Heartbeat CPU 0 instructions: 110000000 cycles: 115504276 heartbeat IPC: 0.593178 cumulative IPC: 0.601691 (Simulation time: 0 hr 7 min 0 sec) 
Heartbeat CPU 0 instructions: 120000003 cycles: 132537856 heartbeat IPC: 0.587076 cumulative IPC: 0.599559 (Simulation time: 0 hr 7 min 47 sec) 
Heartbeat CPU 0 instructions: 130000000 cycles: 149723958 heartbeat IPC: 0.581865 cumulative IPC: 0.597288 (Simulation time: 0 hr 8 min 32 sec) 
Heartbeat CPU 0 instructions: 140000003 cycles: 165681539 heartbeat IPC: 0.626662 cumulative IPC: 0.600415 (Simulation time: 0 hr 9 min 18 sec) 
Heartbeat CPU 0 instructions: 150000003 cycles: 182904722 heartbeat IPC: 0.580613 cumulative IPC: 0.598374 (Simulation time: 0 hr 10 min 3 sec) 
Heartbeat CPU 0 instructions: 160000003 cycles: 200026338 heartbeat IPC: 0.584057 cumulative IPC: 0.597044 (Simulation time: 0 hr 10 min 50 sec) 
Heartbeat CPU 0 instructions: 170000000 cycles: 214941784 heartbeat IPC: 0.670446 cumulative IPC: 0.602541 (Simulation time: 0 hr 11 min 38 sec) 
Heartbeat CPU 0 instructions: 180000001 cycles: 228976890 heartbeat IPC: 0.712499 cumulative IPC: 0.60978 (Simulation time: 0 hr 12 min 24 sec) 
Heartbeat CPU 0 instructions: 190000002 cycles: 242927875 heartbeat IPC: 0.716795 cumulative IPC: 0.616353 (Simulation time: 0 hr 13 min 10 sec) 
Heartbeat CPU 0 instructions: 200000002 cycles: 256892247 heartbeat IPC: 0.716108 cumulative IPC: 0.622131 (Simulation time: 0 hr 13 min 55 sec) 
Heartbeat CPU 0 instructions: 210000000 cycles: 270825055 heartbeat IPC: 0.71773 cumulative IPC: 0.627353 (Simulation time: 0 hr 14 min 41 sec) 
Heartbeat CPU 0 instructions: 220000000 cycles: 284771452 heartbeat IPC: 0.717031 cumulative IPC: 0.632003 (Simulation time: 0 hr 15 min 26 sec) 
Heartbeat CPU 0 instructions: 230000003 cycles: 298842886 heartbeat IPC: 0.71066 cumulative IPC: 0.635913 (Simulation time: 0 hr 16 min 11 sec) 
Heartbeat CPU 0 instructions: 240000001 cycles: 312961786 heartbeat IPC: 0.70827 cumulative IPC: 0.639351 (Simulation time: 0 hr 16 min 56 sec) 
Heartbeat CPU 0 instructions: 250000003 cycles: 327009502 heartbeat IPC: 0.71186 cumulative IPC: 0.642624 (Simulation time: 0 hr 17 min 41 sec) 
Finished CPU 0 instructions: 200000003 cycles: 311224205 cumulative IPC: 0.642624 (Simulation time: 0 hr 17 min 41 sec) 
 Instruction ID: 250000106

ChampSim completed all CPUs

Region of Interest Statistics

CPU 0 cumulative IPC: 0.642624 instructions: 200000003 cycles: 311224205
ITLB SPEC fills:          0  NON-SPEC fills:          0
ITLB Test counter :          0
ITLB Leapfrog:          0
ITLB MSHR merge:          0
ITLB TOTAL     ACCESS:   28831387  HIT:   28831387  MISS:          0  HIT %:        100  MISS %:          0   MPKI: 0
ITLB LOAD TRANSLATION NON_SPEC    ACCESS:   28831387  HIT:   28831387  MISS:          0  HIT %:        100  MISS %:          0   MPKI: 0
ITLB PREFETCH  REQUESTED:          0  ISSUED:          0  USEFUL:          0  USELESS:          0
ITLB USEFUL LOAD PREFETCHES:          0 PREFETCH ISSUED TO LOWER LEVEL:          0  ACCURACY: -nan
ITLB TIMELY PREFETCHES:          0 LATE PREFETCHES: 0 DROPPED PREFETCHES: 0
ITLB COMMIT LATE PREFETCHES: 0 NORMAL LATE: 0 MISSED OPPORTUNITY: 0 UNCOVERED: 0
ITLB PREFETCHES SAME FILL-ORIGIN LEVEL: 0 DIFFERENT FILL-ORIGIN LEVEL: 0
ITLB AVERAGE MISS LATENCY: -nan cycles
ITLB AVERAGE MISS LATENCY LOAD: -nan cycles
ITLB AVERAGE MISS LATENCY PREFETCH: -nan cycles
ITLB AVERAGE MSHR OCCUPANCY: 0
ITLB MSHR FULL: 0
ITLB RQ	ACCESS:   34293077	FORWARD:          0	MERGED:    5461691	TO_CACHE:   28831386

DTLB SPEC fills:          0  NON-SPEC fills:          0
DTLB Test counter :          0
DTLB Leapfrog:          0
DTLB MSHR merge:          0
DTLB TOTAL     ACCESS:   45132592  HIT:   44212668  MISS:     919924  HIT %:    97.9617  MISS %:    2.03827   MPKI: 4.59962
DTLB LOAD TRANSLATION NON_SPEC    ACCESS:   45132592  HIT:   44212668  MISS:     919924  HIT %:    97.9617  MISS %:    2.03827   MPKI: 4.59962
DTLB PREFETCH  REQUESTED:          0  ISSUED:          0  USEFUL:          0  USELESS:          0
DTLB USEFUL LOAD PREFETCHES:          0 PREFETCH ISSUED TO LOWER LEVEL:          0  ACCURACY: -nan
DTLB TIMELY PREFETCHES:          0 LATE PREFETCHES: 0 DROPPED PREFETCHES: 0
DTLB COMMIT LATE PREFETCHES: 0 NORMAL LATE: 0 MISSED OPPORTUNITY: 0 UNCOVERED: 0
DTLB PREFETCHES SAME FILL-ORIGIN LEVEL: 0 DIFFERENT FILL-ORIGIN LEVEL: 0
DTLB AVERAGE MISS LATENCY: 20.6966 cycles
DTLB AVERAGE MISS LATENCY LOAD: -nan cycles
DTLB AVERAGE MISS LATENCY PREFETCH: -nan cycles
DTLB AVERAGE MSHR OCCUPANCY: 0.0563408
DTLB MSHR FULL: 6.64604e-08
DTLB RQ	ACCESS:   55955735	FORWARD:          0	MERGED:   10816079	TO_CACHE:   45139656

STLB SPEC fills:          0  NON-SPEC fills:          0
STLB Test counter :          0
STLB Leapfrog:          0
STLB MSHR merge:          0
STLB TOTAL     ACCESS:    1335055  HIT:    1200769  MISS:     134286  HIT %:    89.9415  MISS %:    10.0585   MPKI: 0.67143
STLB LOAD TRANSLATION NON_SPEC    ACCESS:     919924  HIT:     785857  MISS:     134067  HIT %:    85.4263  MISS %:    14.5737   MPKI: 0.670335
STLB TRANSLATION FROM L1D PREFETCHER NON_SPEC    ACCESS:     415131  HIT:     414912  MISS:        219  HIT %:    99.9472  MISS %:  0.0527544   MPKI: 0.001095
STLB PREFETCH  REQUESTED:          0  ISSUED:          0  USEFUL:        160  USELESS:         58
STLB USEFUL LOAD PREFETCHES:        160 PREFETCH ISSUED TO LOWER LEVEL:          0  ACCURACY: inf
STLB TIMELY PREFETCHES:        160 LATE PREFETCHES: 50 DROPPED PREFETCHES: 1459
STLB COMMIT LATE PREFETCHES: 0 NORMAL LATE: 50 MISSED OPPORTUNITY: 0 UNCOVERED: 18446744073709551566
STLB PREFETCHES SAME FILL-ORIGIN LEVEL: 0 DIFFERENT FILL-ORIGIN LEVEL: 0
STLB AVERAGE MISS LATENCY: 80.2306 cycles
STLB AVERAGE MISS LATENCY LOAD: -nan cycles
STLB AVERAGE MISS LATENCY PREFETCH: -nan cycles
STLB AVERAGE MSHR OCCUPANCY: 0.0574912
STLB MSHR FULL: 0
STLB RQ	ACCESS:    1894538	FORWARD:          0	MERGED:     557481	TO_CACHE:    1337057

STLB Hit, L1D data hit: 0
STLB Hit, L2C data hit: 0
STLB Hit, LLC data hit: 0
STLB Hit, LLC data miss: 0
STLB STLB hints to L2: 0
L0D SPEC fills:   23828325  NON-SPEC fills:          0
L0D TimeGuard Request with older TS:     116729 Restricted eviction:      83111 read:     275541
L0D Test counter :          0
L0D Leapfrog:          0
L0D MSHR merge:     814302
L0D TOTAL     ACCESS:   37943618  HIT:    5420555  MISS:   32523063  HIT %:    14.2858  MISS %:    85.7142   MPKI: 162.615
L0D LOAD      TOTAL       ACCESS:   37943618  HIT:    5420555  MISS:   32523063  HIT %:    14.2858  MISS %:    85.7142   MPKI: 162.615
L0D LOAD      NON_SPEC    ACCESS:    9077830  HIT:     466202  MISS:    8611628  HIT %:    5.13561  MISS %:    94.8644   MPKI: 43.0581
L0D LOAD      SPEC        ACCESS:   28865788  HIT:    4954353  MISS:   23911435  HIT %:    17.1634  MISS %:    82.8366   MPKI: 119.557
L0D PREFETCH  REQUESTED:          0  ISSUED:          0  USEFUL:          0  USELESS:          0
L0D USEFUL LOAD PREFETCHES:          0 PREFETCH ISSUED TO LOWER LEVEL:          0  ACCURACY: -nan
L0D TIMELY PREFETCHES:          0 LATE PREFETCHES: 0 DROPPED PREFETCHES: 0
L0D COMMIT LATE PREFETCHES: 0 NORMAL LATE: 0 MISSED OPPORTUNITY: 0 UNCOVERED: 32523063
L0D PREFETCHES SAME FILL-ORIGIN LEVEL: 0 DIFFERENT FILL-ORIGIN LEVEL: 0
L0D AVERAGE MISS LATENCY: 6.71471 cycles
L0D AVERAGE MISS LATENCY LOAD: 6.71471 cycles
L0D AVERAGE MISS LATENCY PREFETCH: -nan cycles
L0D AVERAGE MSHR OCCUPANCY: 0.617969
L0D MSHR FULL: 1.59967e-06
L0D RQ	ACCESS:   45263497	FORWARD:          0	MERGED:    6505578	TO_CACHE:   38757919
L0D WQ	ACCESS:   17197816	FORWARD:          0	MERGED:          0	TO_CACHE:   17197816

L1D SPEC fills:          0  NON-SPEC fills:     127339
L1D Test counter :          0
L1D Leapfrog:          0
L1D MSHR merge:        652
L1D TOTAL     ACCESS:   81014006  HIT:   79040919  MISS:    1973087  HIT %:    97.5645  MISS %:    2.43549   MPKI: 9.86543
L1D LOAD      TOTAL       ACCESS:   32522477  HIT:   31541363  MISS:     981114  HIT %:    96.9833  MISS %:    3.01673   MPKI: 4.90557
L1D LOAD      NON_SPEC    ACCESS:    8611365  HIT:    8484026  MISS:     127339  HIT %:    98.5213  MISS %:    1.47873   MPKI: 0.636695
L1D LOAD      SPEC        ACCESS:   23911112  HIT:   23057337  MISS:     853775  HIT %:    96.4294  MISS %:    3.57062   MPKI: 4.26887
L1D RFO       NON_SPEC    ACCESS:   15815821  HIT:   15679787  MISS:     136034  HIT %:    99.1399  MISS %:   0.860113   MPKI: 0.68017
L1D PREFETCH  NON_SPEC    ACCESS:     763247  HIT:     755376  MISS:       7871  HIT %:    98.9687  MISS %:    1.03125   MPKI: 0.039355
L1D COMMIT LOAD NON_SPEC    ACCESS:    8186466  HIT:    8160340  MISS:      26126  HIT %:    99.6809  MISS %:   0.319136   MPKI: 0.13063
L1D COMMIT WRITE NON_SPEC    ACCESS:   23725995  HIT:   22904053  MISS:     821942  HIT %:    96.5357  MISS %:    3.46431   MPKI: 4.10971
L1D PREFETCH  REQUESTED:    1154524  ISSUED:    1153942  USEFUL:       6490  USELESS:       1381
L1D USEFUL LOAD PREFETCHES:       6490 PREFETCH ISSUED TO LOWER LEVEL:     207578  ACCURACY: 3.12654
L1D TIMELY PREFETCHES:       6490 LATE PREFETCHES: 66 DROPPED PREFETCHES: 4015
L1D COMMIT LATE PREFETCHES: 0 NORMAL LATE: 66 MISSED OPPORTUNITY: 0 UNCOVERED: 981048
L1D PREFETCHES SAME FILL-ORIGIN LEVEL: 7940 DIFFERENT FILL-ORIGIN LEVEL: 199638
L1D AVERAGE MISS LATENCY: 31.0559 cycles
L1D AVERAGE MISS LATENCY LOAD: 51.9772 cycles
L1D AVERAGE MISS LATENCY PREFETCH: 102.762 cycles
L1D AVERAGE MSHR OCCUPANCY: 0.069837
L1D MSHR FULL: 0
L1D RQ	ACCESS:   44798963	FORWARD:          0	MERGED:    3733023	TO_CACHE:   40710057
L1D WQ	ACCESS:   40931261	FORWARD:     355883	MERGED:    1320106	TO_CACHE:   39611155
L1D PQ	ACCESS:    1153942	FORWARD:          0	MERGED:     179328	TO_CACHE:     974614

L1D UNIQUE REGIONS ACCESSED: 0
L1D REGIONS CONFLICTS: 0
L1D Cross Page Prefetch Requests: 130035
L1D Same Page Prefetch Requests: 1344195
L1D ROI Sum of L1D PQ occupancy: 14005317
L1D PREFETCHES PUSHED FROM L2C: 0
L1I SPEC fills:          0  NON-SPEC fills:          0
L1I Test counter :          0
L1I Leapfrog:          0
L1I MSHR merge:        194
L1I TOTAL     ACCESS:   34292883  HIT:   34292491  MISS:        392  HIT %:    99.9989  MISS %: 0.00114309   MPKI: 0.00196
L1I LOAD      TOTAL       ACCESS:   34292883  HIT:   34292491  MISS:        392  HIT %:    99.9989  MISS %: 0.00114309   MPKI: 0.00196
L1I LOAD      NON_SPEC    ACCESS:   34292883  HIT:   34292491  MISS:        392  HIT %:    99.9989  MISS %: 0.00114309   MPKI: 0.00196
L1I PREFETCH  REQUESTED:          0  ISSUED:          0  USEFUL:          0  USELESS:          0
L1I USEFUL LOAD PREFETCHES:          0 PREFETCH ISSUED TO LOWER LEVEL:          0  ACCURACY: -nan
L1I TIMELY PREFETCHES:          0 LATE PREFETCHES: 0 DROPPED PREFETCHES: 0
L1I COMMIT LATE PREFETCHES: 0 NORMAL LATE: 0 MISSED OPPORTUNITY: 0 UNCOVERED: 392
L1I PREFETCHES SAME FILL-ORIGIN LEVEL: 0 DIFFERENT FILL-ORIGIN LEVEL: 0
L1I AVERAGE MISS LATENCY: 84.523 cycles
L1I AVERAGE MISS LATENCY LOAD: 84.523 cycles
L1I AVERAGE MISS LATENCY PREFETCH: -nan cycles
L1I AVERAGE MSHR OCCUPANCY: 2.02082e-05
L1I MSHR FULL: 0
L1I RQ	ACCESS:   52175596	FORWARD:          0	MERGED:   17882519	TO_CACHE:   34293077

BTB SPEC fills:          0  NON-SPEC fills:          0
BTB Test counter :          0
BTB Leapfrog:          0
BTB MSHR merge:          0
BTB TOTAL     ACCESS:   23485692  HIT:   23238860  MISS:     246832  HIT %:     98.949  MISS %:    1.05099   MPKI: 1.23416
BTB BRANCH_DIRECT_JUMP	ACCESS:    2818425  HIT:    2818347  MISS:         78
BTB BRANCH_INDIRECT	ACCESS:     447403  HIT:     208958  MISS:     238445
BTB BRANCH_CONDITIONAL	ACCESS:   19634890  HIT:   19634641  MISS:        249
BTB BRANCH_DIRECT_CALL	ACCESS:     190457  HIT:     190438  MISS:         19
BTB BRANCH_INDIRECT_CALL	ACCESS:     102031  HIT:     102024  MISS:          7
BTB BRANCH_RETURN	ACCESS:     292486  HIT:     284452  MISS:       8034
BTB BRANCH_OTHER ACCESS:          0  HIT:          0  MISS:          0

L2C SPEC fills:          0  NON-SPEC fills:      38560
L2C Test counter :          0
L2C Leapfrog:          0
L2C MSHR merge:         45
L2C TOTAL     ACCESS:    3081123  HIT:    2127655  MISS:     953468  HIT %:    69.0545  MISS %:    30.9455   MPKI: 4.76734
L2C LOAD      TOTAL       ACCESS:     981413  HIT:     534368  MISS:     447045  HIT %:    54.4488  MISS %:    45.5512   MPKI: 2.23522
L2C LOAD      NON_SPEC    ACCESS:     127661  HIT:      88712  MISS:      38949  HIT %:    69.4903  MISS %:    30.5097   MPKI: 0.194745
L2C LOAD      SPEC        ACCESS:     853752  HIT:     445656  MISS:     408096  HIT %:    52.1997  MISS %:    47.8003   MPKI: 2.04048
L2C RFO       NON_SPEC    ACCESS:     135982  HIT:      88510  MISS:      47472  HIT %:    65.0895  MISS %:    34.9105   MPKI: 0.23736
L2C PREFETCH  NON_SPEC    ACCESS:     202394  HIT:     182231  MISS:      20163  HIT %:    90.0377  MISS %:    9.96225   MPKI: 0.100815
L2C WRITEBACK NON_SPEC    ACCESS:     158285  HIT:     157550  MISS:        735  HIT %:    99.5356  MISS %:   0.464352   MPKI: 0.003675
L2C CLEAN_EVICTION NON_SPEC    ACCESS:     897969  HIT:     487640  MISS:     410329  HIT %:    54.3048  MISS %:    45.6952   MPKI: 2.05164
L2C COMMIT LOAD NON_SPEC    ACCESS:      26105  HIT:      21231  MISS:       4874  HIT %:    81.3292  MISS %:    18.6708   MPKI: 0.02437
L2C LOAD TRANSLATION NON_SPEC    ACCESS:     670335  HIT:     647626  MISS:      22709  HIT %:    96.6123  MISS %:    3.38771   MPKI: 0.113545
L2C TRANSLATION FROM L1D PREFETCHER NON_SPEC    ACCESS:       8640  HIT:       8499  MISS:        141  HIT %:    98.3681  MISS %:    1.63194   MPKI: 0.000705
L2C PREFETCH  REQUESTED:          0  ISSUED:          0  USEFUL:       5430  USELESS:      14583
L2C USEFUL LOAD PREFETCHES:       5430 PREFETCH ISSUED TO LOWER LEVEL:      20212  ACCURACY: 26.8652
L2C TIMELY PREFETCHES:       5430 LATE PREFETCHES: 49 DROPPED PREFETCHES: 0
L2C COMMIT LATE PREFETCHES: 0 NORMAL LATE: 49 MISSED OPPORTUNITY: 0 UNCOVERED: 446996
L2C PREFETCHES SAME FILL-ORIGIN LEVEL: 15325 DIFFERENT FILL-ORIGIN LEVEL: 0
L2C AVERAGE MISS LATENCY: 52.9981 cycles
L2C AVERAGE MISS LATENCY LOAD: 88.7984 cycles
L2C AVERAGE MISS LATENCY PREFETCH: 124.766 cycles
L2C AVERAGE MSHR OCCUPANCY: 0.244881
L2C MSHR FULL: 0
L2C RQ	ACCESS:    1822572	FORWARD:          0	MERGED:          0	TO_CACHE:    1822475
L2C WQ	ACCESS:    1056254	FORWARD:         97	MERGED:          0	TO_CACHE:    1056254
L2C PQ	ACCESS:     207572	FORWARD:          0	MERGED:         81	TO_CACHE:     207491

L2C Instructions Evicting Data 379
L2C Translations Evicting Data 21836
L2C Data Evicting Data 106170
L2C Instructions Evicting Instructions 0
L2C Translations Evicting Instructions 21
L2C Data Evicting Instructions 86
L2C Instructions Evicting Translations 10
L2C Translations Evicting Translations 993
L2C Data Evicting Translations 4813
L2C Dense regions hint from L2: 0
PSCL5 SPEC fills:          0  NON-SPEC fills:          0
PSCL5 Test counter :          0
PSCL5 Leapfrog:          0
PSCL5 MSHR merge:          0
PSCL5 TOTAL     ACCESS:          0  HIT:          0  MISS:          0  HIT %:       -nan  MISS %:       -nan   MPKI: 0
PSCL5 PREFETCH  REQUESTED:          0  ISSUED:          0  USEFUL:          0  USELESS:          0
PSCL5 USEFUL LOAD PREFETCHES:          0 PREFETCH ISSUED TO LOWER LEVEL:          0  ACCURACY: -nan
PSCL5 TIMELY PREFETCHES:          0 LATE PREFETCHES: 0 DROPPED PREFETCHES: 0
PSCL5 COMMIT LATE PREFETCHES: 0 NORMAL LATE: 0 MISSED OPPORTUNITY: 0 UNCOVERED: 0
PSCL5 PREFETCHES SAME FILL-ORIGIN LEVEL: 0 DIFFERENT FILL-ORIGIN LEVEL: 0

PSCL4 SPEC fills:          0  NON-SPEC fills:          0
PSCL4 Test counter :          0
PSCL4 Leapfrog:          0
PSCL4 MSHR merge:          0
PSCL4 TOTAL     ACCESS:          0  HIT:          0  MISS:          0  HIT %:       -nan  MISS %:       -nan   MPKI: 0
PSCL4 PREFETCH  REQUESTED:          0  ISSUED:          0  USEFUL:          0  USELESS:          0
PSCL4 USEFUL LOAD PREFETCHES:          0 PREFETCH ISSUED TO LOWER LEVEL:          0  ACCURACY: -nan
PSCL4 TIMELY PREFETCHES:          0 LATE PREFETCHES: 0 DROPPED PREFETCHES: 0
PSCL4 COMMIT LATE PREFETCHES: 0 NORMAL LATE: 0 MISSED OPPORTUNITY: 0 UNCOVERED: 0
PSCL4 PREFETCHES SAME FILL-ORIGIN LEVEL: 0 DIFFERENT FILL-ORIGIN LEVEL: 0

PSCL3 SPEC fills:          0  NON-SPEC fills:          0
PSCL3 Test counter :          0
PSCL3 Leapfrog:          0
PSCL3 MSHR merge:          0
PSCL3 TOTAL     ACCESS:          0  HIT:          0  MISS:          0  HIT %:       -nan  MISS %:       -nan   MPKI: 0
PSCL3 PREFETCH  REQUESTED:          0  ISSUED:          0  USEFUL:          0  USELESS:          0
PSCL3 USEFUL LOAD PREFETCHES:          0 PREFETCH ISSUED TO LOWER LEVEL:          0  ACCURACY: -nan
PSCL3 TIMELY PREFETCHES:          0 LATE PREFETCHES: 0 DROPPED PREFETCHES: 0
PSCL3 COMMIT LATE PREFETCHES: 0 NORMAL LATE: 0 MISSED OPPORTUNITY: 0 UNCOVERED: 0
PSCL3 PREFETCHES SAME FILL-ORIGIN LEVEL: 0 DIFFERENT FILL-ORIGIN LEVEL: 0

PSCL2 SPEC fills:          0  NON-SPEC fills:          0
PSCL2 Test counter :          0
PSCL2 Leapfrog:          0
PSCL2 MSHR merge:          0
PSCL2 TOTAL     ACCESS:          0  HIT:          0  MISS:          0  HIT %:       -nan  MISS %:       -nan   MPKI: 0
PSCL2 PREFETCH  REQUESTED:          0  ISSUED:          0  USEFUL:          0  USELESS:          0
PSCL2 USEFUL LOAD PREFETCHES:          0 PREFETCH ISSUED TO LOWER LEVEL:          0  ACCURACY: -nan
PSCL2 TIMELY PREFETCHES:          0 LATE PREFETCHES: 0 DROPPED PREFETCHES: 0
PSCL2 COMMIT LATE PREFETCHES: 0 NORMAL LATE: 0 MISSED OPPORTUNITY: 0 UNCOVERED: 0
PSCL2 PREFETCHES SAME FILL-ORIGIN LEVEL: 0 DIFFERENT FILL-ORIGIN LEVEL: 0

LLC SPEC fills:          0  NON-SPEC fills:      13819
LLC Test counter :          0
LLC Leapfrog:          0
LLC MSHR merge:          0
LLC TOTAL     ACCESS:    1035412  HIT:     599290  MISS:     436122  HIT %:    57.8794  MISS %:    42.1206   MPKI: 2.18061
LLC LOAD      TOTAL       ACCESS:     446999  HIT:     254276  MISS:     192723  HIT %:    56.8851  MISS %:    43.1149   MPKI: 0.963615
LLC LOAD      NON_SPEC    ACCESS:      38935  HIT:      25024  MISS:      13911  HIT %:    64.2712  MISS %:    35.7288   MPKI: 0.069555
LLC LOAD      SPEC        ACCESS:     408064  HIT:     229252  MISS:     178812  HIT %:    56.1804  MISS %:    43.8196   MPKI: 0.89406
LLC RFO       NON_SPEC    ACCESS:      47467  HIT:      16352  MISS:      31115  HIT %:    34.4492  MISS %:    65.5508   MPKI: 0.155575
LLC PREFETCH  NON_SPEC    ACCESS:      20212  HIT:      10115  MISS:      10097  HIT %:    50.0445  MISS %:    49.9555   MPKI: 0.050485
LLC WRITEBACK NON_SPEC    ACCESS:      52163  HIT:      51354  MISS:        809  HIT %:    98.4491  MISS %:    1.55091   MPKI: 0.004045
LLC CLEAN_EVICTION NON_SPEC    ACCESS:     440848  HIT:     242940  MISS:     197908  HIT %:    55.1074  MISS %:    44.8926   MPKI: 0.98954
LLC COMMIT LOAD NON_SPEC    ACCESS:       4873  HIT:       4802  MISS:         71  HIT %:     98.543  MISS %:    1.45701   MPKI: 0.000355
LLC LOAD TRANSLATION NON_SPEC    ACCESS:      22709  HIT:      19336  MISS:       3373  HIT %:    85.1469  MISS %:    14.8531   MPKI: 0.016865
LLC TRANSLATION FROM L1D PREFETCHER NON_SPEC    ACCESS:        141  HIT:        115  MISS:         26  HIT %:    81.5603  MISS %:    18.4397   MPKI: 0.00013
LLC PREFETCH  REQUESTED:          0  ISSUED:          0  USEFUL:       1138  USELESS:       8509
LLC USEFUL LOAD PREFETCHES:       1138 PREFETCH ISSUED TO LOWER LEVEL:      10097  ACCURACY: 11.2707
LLC TIMELY PREFETCHES:       1138 LATE PREFETCHES: 0 DROPPED PREFETCHES: 0
LLC COMMIT LATE PREFETCHES: 0 NORMAL LATE: 0 MISSED OPPORTUNITY: 0 UNCOVERED: 192723
LLC PREFETCHES SAME FILL-ORIGIN LEVEL: 0 DIFFERENT FILL-ORIGIN LEVEL: 0
LLC AVERAGE MISS LATENCY: 86.9574 cycles
LLC AVERAGE MISS LATENCY LOAD: 155.402 cycles
LLC AVERAGE MISS LATENCY PREFETCH: 189.592 cycles
LLC AVERAGE MSHR OCCUPANCY: 0.21506
LLC MSHR FULL: 0
LLC RQ	ACCESS:     522192	FORWARD:          0	MERGED:          0	TO_CACHE:     522189
LLC WQ	ACCESS:     493011	FORWARD:          3	MERGED:          0	TO_CACHE:     493011
LLC PQ	ACCESS:      20212	FORWARD:          0	MERGED:          0	TO_CACHE:      20212

LLC Dense regions hint to LLC: 0

RAW hits: 2062663
Loads Generated: 47326161
Loads sent to L1D: 45263497
Stores Generated: 17197827
Stores sent to L1D: 17197816
Major fault: 0 Minor fault: 8202
Allocated PAGES: 8202
Total Load insts: 55954065
Total Non-spec loads: 9931476
Percentage of speculative loads: 82.2507

LeapFrogging counter: 8
Commit hits: 23733445 miss: 12275901
Commit hit %: 65.9091 miss %: 34.0909
Commits not translated: 0
Loads retired: 981112
Stores retired: 17197816
Cache fills: 981114
L1D response latency: 51.9772 cycles
Load retirement latency: 94.0247 cycles
OOO test counter: 0
Discarded buffer inserts: 23733445 hits: 5265 hit %: 0.0221839
Filter prediction accuracy: -nan
LATENCY_FILL: 51.792 980933

DRAM Statistics
 CHANNEL 0
 RQ ROW_BUFFER_HIT:       3052  ROW_BUFFER_MISS:     234349
 DBUS_CONGESTED:         13
 WQ ROW_BUFFER_HIT:      22037  ROW_BUFFER_MISS:     221410  FULL:          0

 AVG_CONGESTED_CYCLE: 5
 All warmup complete: 2
Channel 0 Bank busy for read cycles: 0
Channel 0 Bank busy for write cycles: 0
Channel 0
Rank 0
0banks busy for read cycles: 248827483
0banks busy for write cycles: 168024
1banks busy for read cycles: 26494992
1banks busy for write cycles: 26034602
2banks busy for read cycles: 3401744
2banks busy for write cycles: 4376640
3banks busy for read cycles: 428176
3banks busy for write cycles: 815510
4banks busy for read cycles: 99147
4banks busy for write cycles: 199043
5banks busy for read cycles: 32543
5banks busy for write cycles: 64366
6banks busy for read cycles: 12148
6banks busy for write cycles: 36669
7banks busy for read cycles: 4258
7banks busy for write cycles: 34182
8banks busy for read cycles: 11401
8banks busy for write cycles: 183278

CPU 0 Branch Prediction Accuracy: 92.4682% MPKI: 9.41666 Average ROB Occupancy at Mispredict: 24.4731
Branch types
NOT_BRANCH: 174994601 87.4973%
BRANCH_DIRECT_JUMP: 2818425 1.40921%
BRANCH_INDIRECT: 447403 0.223701%
BRANCH_CONDITIONAL: 21154324 10.5772%
BRANCH_DIRECT_CALL: 190457 0.0952285%
BRANCH_INDIRECT_CALL: 102031 0.0510155%
BRANCH_RETURN: 292486 0.146243%
BRANCH_OTHER: 0 0%

DRAM PAGES: 1048576
Allocated PAGES: 8202
