
*** ChampSim Multicore Out-of-Order Simulator ***

Warmup Instructions: 50000000
Simulation Instructions: 200000000
Number of CPUs: 1
LLC sets: 2048
LLC ways: 16
L0D sets: 16
L0D ways: 2
ROB size: 352
LQ size: 128
SQ size: 72
Secure Berti: ON
Berti: ON
Berti Fill: ON
On commit prefetching: OFF
Hit-based filter: OFF
Time-guarding: ON
Free-slotting: ON
Leap-frogging: ON
Train prefetcher on L0D bypass: OFF
No translation penalty for prefetchers: OFF
Prefetch to L0D only: OFF
Prefetch to L1D only: OFF
Clean evictions: ON
Commit loads: ON
Commit write: ON
Fill commit loads to L2C, LLC: ON
DRAM IO FREQUENCY: 6400
ROB SIZE: 352
Off-chip DRAM Size: 4096 MB Channels: 1 Width: 64-bit Data Rate: 6400 MT/s
CPU 0 runs /home/sumon/secure_berti/GhostMinion/../../traces/gap/bc-12.trace.gz
.gz
BTB has LRU replacement policy
ITLB has LRU replacement policy
DTLB has LRU replacement policy
STLB has LRU replacement policy
L1I has LRU replacement policy
L0D has LRU replacement policy
Berti version on_commit
History Sets: 8
History Ways: 16
BERTI Size: 16
BERTI Stride Size: 16
History Sets: 8
History Ways: 16
BERTI Size: 16
BERTI Stride Size: 16
L1D has LRU replacement policy
L2C has LRU replacement policy
LLC has LRU replacement policy
Heartbeat CPU 0 instructions: 10000001 cycles: 3921113 heartbeat IPC: 2.5503 cumulative IPC: 2.5503 (Simulation time: 0 hr 1 min 53 sec) 
Heartbeat CPU 0 instructions: 20000000 cycles: 7512082 heartbeat IPC: 2.78476 cumulative IPC: 2.66238 (Simulation time: 0 hr 3 min 45 sec) 
Heartbeat CPU 0 instructions: 30000002 cycles: 11111078 heartbeat IPC: 2.77855 cumulative IPC: 2.70001 (Simulation time: 0 hr 5 min 39 sec) 
Heartbeat CPU 0 instructions: 40000000 cycles: 14713201 heartbeat IPC: 2.77614 cumulative IPC: 2.71865 (Simulation time: 0 hr 7 min 32 sec) 
Heartbeat CPU 0 instructions: 50000002 cycles: 18270486 heartbeat IPC: 2.81113 cumulative IPC: 2.73665 (Simulation time: 0 hr 9 min 27 sec) 

Warmup complete CPU 0 instructions: 50000002 cycles: 18270486 (Simulation time: 0 hr 9 min 27 sec) 

Heartbeat CPU 0 instructions: 60000001 cycles: 86915299 heartbeat IPC: 0.145677 cumulative IPC: 0.145677 (Simulation time: 0 hr 12 min 31 sec) 
Heartbeat CPU 0 instructions: 70000002 cycles: 155952076 heartbeat IPC: 0.14485 cumulative IPC: 0.145263 (Simulation time: 0 hr 15 min 32 sec) 
Heartbeat CPU 0 instructions: 80000002 cycles: 224240793 heartbeat IPC: 0.146437 cumulative IPC: 0.145652 (Simulation time: 0 hr 18 min 32 sec) 
Heartbeat CPU 0 instructions: 90000002 cycles: 293395020 heartbeat IPC: 0.144604 cumulative IPC: 0.145389 (Simulation time: 0 hr 21 min 33 sec) 
Heartbeat CPU 0 instructions: 100000001 cycles: 362316615 heartbeat IPC: 0.145092 cumulative IPC: 0.145329 (Simulation time: 0 hr 24 min 34 sec) 
Heartbeat CPU 0 instructions: 110000000 cycles: 431401759 heartbeat IPC: 0.144749 cumulative IPC: 0.145232 (Simulation time: 0 hr 27 min 34 sec) 
Heartbeat CPU 0 instructions: 120000001 cycles: 500559140 heartbeat IPC: 0.144598 cumulative IPC: 0.145141 (Simulation time: 0 hr 30 min 37 sec) 
Heartbeat CPU 0 instructions: 130000000 cycles: 569617982 heartbeat IPC: 0.144804 cumulative IPC: 0.145099 (Simulation time: 0 hr 33 min 37 sec) 
Heartbeat CPU 0 instructions: 140000000 cycles: 638745717 heartbeat IPC: 0.14466 cumulative IPC: 0.14505 (Simulation time: 0 hr 36 min 40 sec) 
Heartbeat CPU 0 instructions: 150000001 cycles: 707999944 heartbeat IPC: 0.144396 cumulative IPC: 0.144984 (Simulation time: 0 hr 39 min 42 sec) 
Heartbeat CPU 0 instructions: 160000001 cycles: 777137403 heartbeat IPC: 0.144639 cumulative IPC: 0.144953 (Simulation time: 0 hr 42 min 47 sec) 
Heartbeat CPU 0 instructions: 170000003 cycles: 846307481 heartbeat IPC: 0.144571 cumulative IPC: 0.144921 (Simulation time: 0 hr 45 min 53 sec) 
Heartbeat CPU 0 instructions: 180000001 cycles: 915573471 heartbeat IPC: 0.144371 cumulative IPC: 0.144879 (Simulation time: 0 hr 48 min 54 sec) 
Heartbeat CPU 0 instructions: 190000000 cycles: 981224588 heartbeat IPC: 0.15232 cumulative IPC: 0.145386 (Simulation time: 0 hr 51 min 56 sec) 
Heartbeat CPU 0 instructions: 200000000 cycles: 1049559922 heartbeat IPC: 0.146337 cumulative IPC: 0.145449 (Simulation time: 0 hr 54 min 52 sec) 
Heartbeat CPU 0 instructions: 210000002 cycles: 1117921706 heartbeat IPC: 0.146281 cumulative IPC: 0.145501 (Simulation time: 0 hr 57 min 48 sec) 
Heartbeat CPU 0 instructions: 220000000 cycles: 1186296540 heartbeat IPC: 0.146253 cumulative IPC: 0.145545 (Simulation time: 1 hr 0 min 44 sec) 
Heartbeat CPU 0 instructions: 230000001 cycles: 1254393832 heartbeat IPC: 0.146849 cumulative IPC: 0.145617 (Simulation time: 1 hr 3 min 38 sec) 
Heartbeat CPU 0 instructions: 240000001 cycles: 1322796278 heartbeat IPC: 0.146194 cumulative IPC: 0.145647 (Simulation time: 1 hr 6 min 33 sec) 
Heartbeat CPU 0 instructions: 250000003 cycles: 1390431466 heartbeat IPC: 0.147852 cumulative IPC: 0.145755 (Simulation time: 1 hr 9 min 26 sec) 
Finished CPU 0 instructions: 200000001 cycles: 1372160980 cumulative IPC: 0.145755 (Simulation time: 1 hr 9 min 26 sec) 
 Instruction ID: 250000045

ChampSim completed all CPUs

Region of Interest Statistics

CPU 0 cumulative IPC: 0.145755 instructions: 200000001 cycles: 1372160980
ITLB SPEC fills:          0  NON-SPEC fills:          0
ITLB Test counter :          0
ITLB Leapfrog:          0
ITLB MSHR merge:          0
ITLB TOTAL     ACCESS:   36666574  HIT:   36666574  MISS:          0  HIT %:        100  MISS %:          0   MPKI: 0
ITLB LOAD TRANSLATION NON_SPEC    ACCESS:   36666574  HIT:   36666574  MISS:          0  HIT %:        100  MISS %:          0   MPKI: 0
ITLB PREFETCH  REQUESTED:          0  ISSUED:          0  USEFUL:          0  USELESS:          0
ITLB USEFUL LOAD PREFETCHES:          0 PREFETCH ISSUED TO LOWER LEVEL:          0  ACCURACY: -nan
ITLB TIMELY PREFETCHES:          0 LATE PREFETCHES: 0 DROPPED PREFETCHES: 0
ITLB COMMIT LATE PREFETCHES: 0 NORMAL LATE: 0 MISSED OPPORTUNITY: 0 UNCOVERED: 0
ITLB PREFETCHES SAME FILL-ORIGIN LEVEL: 0 DIFFERENT FILL-ORIGIN LEVEL: 0
ITLB AVERAGE MISS LATENCY: -nan cycles
ITLB AVERAGE MISS LATENCY LOAD: -nan cycles
ITLB AVERAGE MISS LATENCY PREFETCH: -nan cycles
ITLB AVERAGE MSHR OCCUPANCY: 0
ITLB MSHR FULL: 0
ITLB RQ	ACCESS:   36967291	FORWARD:          0	MERGED:     300718	TO_CACHE:   36666573

DTLB SPEC fills:          0  NON-SPEC fills:          0
DTLB Test counter :          0
DTLB Leapfrog:          0
DTLB MSHR merge:          0
DTLB TOTAL     ACCESS:   60152858  HIT:   51646563  MISS:    8506295  HIT %:    85.8589  MISS %:    14.1411   MPKI: 42.5315
DTLB LOAD TRANSLATION NON_SPEC    ACCESS:   60152858  HIT:   51646563  MISS:    8506295  HIT %:    85.8589  MISS %:    14.1411   MPKI: 42.5315
DTLB PREFETCH  REQUESTED:          0  ISSUED:          0  USEFUL:          0  USELESS:          0
DTLB USEFUL LOAD PREFETCHES:          0 PREFETCH ISSUED TO LOWER LEVEL:          0  ACCURACY: -nan
DTLB TIMELY PREFETCHES:          0 LATE PREFETCHES: 0 DROPPED PREFETCHES: 0
DTLB COMMIT LATE PREFETCHES: 0 NORMAL LATE: 0 MISSED OPPORTUNITY: 0 UNCOVERED: 0
DTLB PREFETCHES SAME FILL-ORIGIN LEVEL: 0 DIFFERENT FILL-ORIGIN LEVEL: 0
DTLB AVERAGE MISS LATENCY: 40.3164 cycles
DTLB AVERAGE MISS LATENCY LOAD: -nan cycles
DTLB AVERAGE MISS LATENCY PREFETCH: -nan cycles
DTLB AVERAGE MSHR OCCUPANCY: 0.251458
DTLB MSHR FULL: 0.000414547
DTLB RQ	ACCESS:   66090507	FORWARD:          0	MERGED:    5253759	TO_CACHE:   60836748

STLB SPEC fills:          0  NON-SPEC fills:          0
STLB Test counter :          0
STLB Leapfrog:          0
STLB MSHR merge:          0
STLB TOTAL     ACCESS:   20670113  HIT:   17276244  MISS:    3393869  HIT %:    83.5808  MISS %:    16.4192   MPKI: 16.9693
STLB LOAD TRANSLATION NON_SPEC    ACCESS:    8506295  HIT:    5269364  MISS:    3236931  HIT %:    61.9466  MISS %:    38.0534   MPKI: 16.1847
STLB TRANSLATION FROM L1D PREFETCHER NON_SPEC    ACCESS:   12163818  HIT:   12006880  MISS:     156938  HIT %:    98.7098  MISS %:     1.2902   MPKI: 0.78469
STLB PREFETCH  REQUESTED:          0  ISSUED:          0  USEFUL:     148061  USELESS:       8876
STLB USEFUL LOAD PREFETCHES:     148061 PREFETCH ISSUED TO LOWER LEVEL:          0  ACCURACY: inf
STLB TIMELY PREFETCHES:     148061 LATE PREFETCHES: 25920 DROPPED PREFETCHES: 1307196
STLB COMMIT LATE PREFETCHES: 0 NORMAL LATE: 0 MISSED OPPORTUNITY: 0 UNCOVERED: 0
STLB PREFETCHES SAME FILL-ORIGIN LEVEL: 0 DIFFERENT FILL-ORIGIN LEVEL: 0
STLB AVERAGE MISS LATENCY: 82.5243 cycles
STLB AVERAGE MISS LATENCY LOAD: -nan cycles
STLB AVERAGE MISS LATENCY PREFETCH: -nan cycles
STLB AVERAGE MSHR OCCUPANCY: 0.290311
STLB MSHR FULL: 0
STLB RQ	ACCESS:   50819980	FORWARD:          0	MERGED:   28746471	TO_CACHE:   22073509

STLB Hit, L1D data hit: 0
STLB Hit, L2C data hit: 0
STLB Hit, LLC data hit: 0
STLB Hit, LLC data miss: 0
STLB STLB hints to L2: 0
L0D SPEC fills:   37539108  NON-SPEC fills:          0
L0D TimeGuard Request with older TS:     400452 Restricted eviction:     379421 read:          2
L0D Test counter :          0
L0D Leapfrog:          0
L0D MSHR merge:     246096
L0D TOTAL     ACCESS:   54599475  HIT:    8934037  MISS:   45665438  HIT %:    16.3629  MISS %:    83.6371   MPKI: 228.327
L0D LOAD      TOTAL       ACCESS:   54599475  HIT:    8934037  MISS:   45665438  HIT %:    16.3629  MISS %:    83.6371   MPKI: 228.327
L0D LOAD      NON_SPEC    ACCESS:    7751029  HIT:       4038  MISS:    7746991  HIT %:  0.0520963  MISS %:    99.9479   MPKI: 38.735
L0D LOAD      SPEC        ACCESS:   46848446  HIT:    8929999  MISS:   37918447  HIT %:    19.0615  MISS %:    80.9385   MPKI: 189.592
L0D PREFETCH  REQUESTED:          0  ISSUED:          0  USEFUL:          0  USELESS:          0
L0D USEFUL LOAD PREFETCHES:          0 PREFETCH ISSUED TO LOWER LEVEL:          0  ACCURACY: -nan
L0D TIMELY PREFETCHES:          0 LATE PREFETCHES: 0 DROPPED PREFETCHES: 0
L0D COMMIT LATE PREFETCHES: 0 NORMAL LATE: 0 MISSED OPPORTUNITY: 0 UNCOVERED: 0
L0D PREFETCHES SAME FILL-ORIGIN LEVEL: 0 DIFFERENT FILL-ORIGIN LEVEL: 0
L0D AVERAGE MISS LATENCY: 48.4677 cycles
L0D AVERAGE MISS LATENCY LOAD: 48.4677 cycles
L0D AVERAGE MISS LATENCY PREFETCH: -nan cycles
L0D AVERAGE MSHR OCCUPANCY: 1.46068
L0D MSHR FULL: 0.0457135
L0D RQ	ACCESS:   55532128	FORWARD:          0	MERGED:     686559	TO_CACHE:   54845569
L0D WQ	ACCESS:   11244938	FORWARD:          0	MERGED:          0	TO_CACHE:   11244938

L1D SPEC fills:          0  NON-SPEC fills:    3663648
L1D Test counter :   16426605
L1D Leapfrog:          0
L1D MSHR merge:      19259
L1D TOTAL     ACCESS:  114410413  HIT:   84279414  MISS:   30130999  HIT %:    73.6641  MISS %:    26.3359   MPKI: 150.655
L1D LOAD      TOTAL       ACCESS:   45663691  HIT:   29179202  MISS:   16484489  HIT %:    63.9002  MISS %:    36.0998   MPKI: 82.4224
L1D LOAD      NON_SPEC    ACCESS:    7745754  HIT:    4082106  MISS:    3663648  HIT %:    52.7012  MISS %:    47.2988   MPKI: 18.3182
L1D LOAD      SPEC        ACCESS:   37917937  HIT:   25097096  MISS:   12820841  HIT %:    66.1879  MISS %:    33.8121   MPKI: 64.1042
L1D RFO       NON_SPEC    ACCESS:    6912930  HIT:    6883167  MISS:      29763  HIT %:    99.5695  MISS %:   0.430541   MPKI: 0.148815
L1D PREFETCH  NON_SPEC    ACCESS:   16875315  HIT:   16080769  MISS:     794546  HIT %:    95.2917  MISS %:    4.70833   MPKI: 3.97273
L1D COMMIT LOAD NON_SPEC    ACCESS:    7651064  HIT:    7470010  MISS:     181054  HIT %:    97.6336  MISS %:    2.36639   MPKI: 0.90527
L1D COMMIT WRITE NON_SPEC    ACCESS:   37307413  HIT:   24666266  MISS:   12641147  HIT %:    66.1163  MISS %:    33.8837   MPKI: 63.2057
L1D PREFETCH  REQUESTED:   82820426  ISSUED:   79994609  USEFUL:     724461  USELESS:      70088
L1D USEFUL LOAD PREFETCHES:     724461 PREFETCH ISSUED TO LOWER LEVEL:   23061703  ACCURACY: 3.1414
L1D TIMELY PREFETCHES:     724461 LATE PREFETCHES: 19325 DROPPED PREFETCHES: 2973418
L1D COMMIT LATE PREFETCHES: 53406 NORMAL LATE: 33083 MISSED OPPORTUNITY: 34745 UNCOVERED: 16365435
L1D PREFETCHES SAME FILL-ORIGIN LEVEL: 813871 DIFFERENT FILL-ORIGIN LEVEL: 22247832
L1D AVERAGE MISS LATENCY: 67.6847 cycles
L1D AVERAGE MISS LATENCY LOAD: 119.539 cycles
L1D AVERAGE MISS LATENCY PREFETCH: 59.9846 cycles
L1D AVERAGE MSHR OCCUPANCY: 0.943308
L1D MSHR FULL: 0.011054
L1D RQ	ACCESS:   56135217	FORWARD:          0	MERGED:    2219072	TO_CACHE:   53317939
L1D WQ	ACCESS:   48556254	FORWARD:     598206	MERGED:    4263097	TO_CACHE:   44293157
L1D PQ	ACCESS:   79994609	FORWARD:          0	MERGED:   37680924	TO_CACHE:   42313685

L1D UNIQUE REGIONS ACCESSED: 0
L1D REGIONS CONFLICTS: 0
L1D Cross Page Prefetch Requests: 12592020
L1D Same Page Prefetch Requests: 86717547
L1D ROI Sum of L1D PQ occupancy: 1093462835
L1D PREFETCHES PUSHED FROM L2C: 0
L1I SPEC fills:          0  NON-SPEC fills:          0
L1I Test counter :          0
L1I Leapfrog:          0
L1I MSHR merge:          0
L1I TOTAL     ACCESS:   36967292  HIT:   36967292  MISS:          0  HIT %:        100  MISS %:          0   MPKI: 0
L1I LOAD      TOTAL       ACCESS:   36967292  HIT:   36967292  MISS:          0  HIT %:        100  MISS %:          0   MPKI: 0
L1I LOAD      NON_SPEC    ACCESS:   36967292  HIT:   36967292  MISS:          0  HIT %:        100  MISS %:          0   MPKI: 0
L1I PREFETCH  REQUESTED:          0  ISSUED:          0  USEFUL:          0  USELESS:          0
L1I USEFUL LOAD PREFETCHES:          0 PREFETCH ISSUED TO LOWER LEVEL:          0  ACCURACY: -nan
L1I TIMELY PREFETCHES:          0 LATE PREFETCHES: 0 DROPPED PREFETCHES: 0
L1I COMMIT LATE PREFETCHES: 0 NORMAL LATE: 0 MISSED OPPORTUNITY: 0 UNCOVERED: 0
L1I PREFETCHES SAME FILL-ORIGIN LEVEL: 0 DIFFERENT FILL-ORIGIN LEVEL: 0
L1I AVERAGE MISS LATENCY: -nan cycles
L1I AVERAGE MISS LATENCY LOAD: -nan cycles
L1I AVERAGE MISS LATENCY PREFETCH: -nan cycles
L1I AVERAGE MSHR OCCUPANCY: 0
L1I MSHR FULL: 0
L1I RQ	ACCESS:   48283020	FORWARD:          0	MERGED:   11315729	TO_CACHE:   36967291

BTB SPEC fills:          0  NON-SPEC fills:          0
BTB Test counter :          0
BTB Leapfrog:          0
BTB MSHR merge:          0
BTB TOTAL     ACCESS:   35189020  HIT:   35189006  MISS:         14  HIT %:        100  MISS %: 3.97851e-05   MPKI: 7e-05
BTB BRANCH_DIRECT_JUMP	ACCESS:     253973  HIT:     253969  MISS:          4
BTB BRANCH_INDIRECT	ACCESS:          0  HIT:          0  MISS:          0
BTB BRANCH_CONDITIONAL	ACCESS:   34935019  HIT:   34935011  MISS:          8
BTB BRANCH_DIRECT_CALL	ACCESS:         14  HIT:         13  MISS:          1
BTB BRANCH_INDIRECT_CALL	ACCESS:          0  HIT:          0  MISS:          0
BTB BRANCH_RETURN	ACCESS:         14  HIT:         13  MISS:          1
BTB BRANCH_OTHER ACCESS:          0  HIT:          0  MISS:          0

L2C SPEC fills:          0  NON-SPEC fills:    3402397
L2C Test counter :          0
L2C Leapfrog:          0
L2C MSHR merge:     120686
L2C TOTAL     ACCESS:   78698783  HIT:   51222521  MISS:   27476262  HIT %:    65.0868  MISS %:    34.9132   MPKI: 137.381
L2C LOAD      TOTAL       ACCESS:   16466950  HIT:    2713821  MISS:   13753129  HIT %:    16.4804  MISS %:    83.5196   MPKI: 68.7656
L2C LOAD      NON_SPEC    ACCESS:    3662606  HIT:     260209  MISS:    3402397  HIT %:    7.10448  MISS %:    92.8955   MPKI: 17.012
L2C LOAD      SPEC        ACCESS:   12804344  HIT:    2453612  MISS:   10350732  HIT %:    19.1623  MISS %:    80.8377   MPKI: 51.7537
L2C RFO       NON_SPEC    ACCESS:      29763  HIT:        708  MISS:      29055  HIT %:    2.37879  MISS %:    97.6212   MPKI: 0.145275
L2C PREFETCH  NON_SPEC    ACCESS:   22142618  HIT:   19071787  MISS:    3070831  HIT %:    86.1316  MISS %:    13.8684   MPKI: 15.3542
L2C WRITEBACK NON_SPEC    ACCESS:    2978117  HIT:    2978065  MISS:         52  HIT %:    99.9983  MISS %: 0.00174607   MPKI: 0.00026
L2C CLEAN_EVICTION NON_SPEC    ACCESS:   13385540  HIT:    3012900  MISS:   10372640  HIT %:    22.5086  MISS %:    77.4914   MPKI: 51.8632
L2C COMMIT LOAD NON_SPEC    ACCESS:     179191  HIT:      61000  MISS:     118191  HIT %:    34.0419  MISS %:    65.9581   MPKI: 0.590955
L2C LOAD TRANSLATION NON_SPEC    ACCESS:   16069818  HIT:   15957301  MISS:     112517  HIT %:    99.2998  MISS %:   0.700176   MPKI: 0.562585
L2C TRANSLATION FROM L1D PREFETCHER NON_SPEC    ACCESS:    7446786  HIT:    7426939  MISS:      19847  HIT %:    99.7335  MISS %:   0.266518   MPKI: 0.099235
L2C PREFETCH  REQUESTED:          0  ISSUED:          0  USEFUL:     371634  USELESS:    2719059
L2C USEFUL LOAD PREFETCHES:     371634 PREFETCH ISSUED TO LOWER LEVEL:    3192081  ACCURACY: 11.6424
L2C TIMELY PREFETCHES:     371634 LATE PREFETCHES: 121249 DROPPED PREFETCHES: 0
L2C COMMIT LATE PREFETCHES: 0 NORMAL LATE: 122219 MISSED OPPORTUNITY: 0 UNCOVERED: 13631474
L2C PREFETCHES SAME FILL-ORIGIN LEVEL: 3036238 DIFFERENT FILL-ORIGIN LEVEL: 0
L2C AVERAGE MISS LATENCY: 93.0983 cycles
L2C AVERAGE MISS LATENCY LOAD: 128.607 cycles
L2C AVERAGE MISS LATENCY PREFETCH: 246.292 cycles
L2C AVERAGE MSHR OCCUPANCY: 1.44889
L2C MSHR FULL: 1.23653e-05
L2C RQ	ACCESS:   40192586	FORWARD:          0	MERGED:          0	TO_CACHE:   40192509
L2C WQ	ACCESS:   16363661	FORWARD:         79	MERGED:          4	TO_CACHE:   16363657
L2C PQ	ACCESS:   23061692	FORWARD:          0	MERGED:       2217	TO_CACHE:   23059473

L2C Instructions Evicting Data 0
L2C Translations Evicting Data 132273
L2C Data Evicting Data 6566391
L2C Instructions Evicting Instructions 0
L2C Translations Evicting Instructions 0
L2C Data Evicting Instructions 0
L2C Instructions Evicting Translations 0
L2C Translations Evicting Translations 91
L2C Data Evicting Translations 54083
L2C Dense regions hint from L2: 0
PSCL5 SPEC fills:          0  NON-SPEC fills:          0
PSCL5 Test counter :          0
PSCL5 Leapfrog:          0
PSCL5 MSHR merge:          0
PSCL5 TOTAL     ACCESS:          0  HIT:          0  MISS:          0  HIT %:       -nan  MISS %:       -nan   MPKI: 0
PSCL5 PREFETCH  REQUESTED:          0  ISSUED:          0  USEFUL:          0  USELESS:          0
PSCL5 USEFUL LOAD PREFETCHES:          0 PREFETCH ISSUED TO LOWER LEVEL:          0  ACCURACY: -nan
PSCL5 TIMELY PREFETCHES:          0 LATE PREFETCHES: 0 DROPPED PREFETCHES: 0
PSCL5 COMMIT LATE PREFETCHES: 0 NORMAL LATE: 0 MISSED OPPORTUNITY: 0 UNCOVERED: 0
PSCL5 PREFETCHES SAME FILL-ORIGIN LEVEL: 0 DIFFERENT FILL-ORIGIN LEVEL: 0

PSCL4 SPEC fills:          0  NON-SPEC fills:          0
PSCL4 Test counter :          0
PSCL4 Leapfrog:          0
PSCL4 MSHR merge:          0
PSCL4 TOTAL     ACCESS:          0  HIT:          0  MISS:          0  HIT %:       -nan  MISS %:       -nan   MPKI: 0
PSCL4 PREFETCH  REQUESTED:          0  ISSUED:          0  USEFUL:          0  USELESS:          0
PSCL4 USEFUL LOAD PREFETCHES:          0 PREFETCH ISSUED TO LOWER LEVEL:          0  ACCURACY: -nan
PSCL4 TIMELY PREFETCHES:          0 LATE PREFETCHES: 0 DROPPED PREFETCHES: 0
PSCL4 COMMIT LATE PREFETCHES: 0 NORMAL LATE: 0 MISSED OPPORTUNITY: 0 UNCOVERED: 0
PSCL4 PREFETCHES SAME FILL-ORIGIN LEVEL: 0 DIFFERENT FILL-ORIGIN LEVEL: 0

PSCL3 SPEC fills:          0  NON-SPEC fills:          0
PSCL3 Test counter :          0
PSCL3 Leapfrog:          0
PSCL3 MSHR merge:          0
PSCL3 TOTAL     ACCESS:          0  HIT:          0  MISS:          0  HIT %:       -nan  MISS %:       -nan   MPKI: 0
PSCL3 PREFETCH  REQUESTED:          0  ISSUED:          0  USEFUL:          0  USELESS:          0
PSCL3 USEFUL LOAD PREFETCHES:          0 PREFETCH ISSUED TO LOWER LEVEL:          0  ACCURACY: -nan
PSCL3 TIMELY PREFETCHES:          0 LATE PREFETCHES: 0 DROPPED PREFETCHES: 0
PSCL3 COMMIT LATE PREFETCHES: 0 NORMAL LATE: 0 MISSED OPPORTUNITY: 0 UNCOVERED: 0
PSCL3 PREFETCHES SAME FILL-ORIGIN LEVEL: 0 DIFFERENT FILL-ORIGIN LEVEL: 0

PSCL2 SPEC fills:          0  NON-SPEC fills:          0
PSCL2 Test counter :          0
PSCL2 Leapfrog:          0
PSCL2 MSHR merge:          0
PSCL2 TOTAL     ACCESS:          0  HIT:          0  MISS:          0  HIT %:       -nan  MISS %:       -nan   MPKI: 0
PSCL2 PREFETCH  REQUESTED:          0  ISSUED:          0  USEFUL:          0  USELESS:          0
PSCL2 USEFUL LOAD PREFETCHES:          0 PREFETCH ISSUED TO LOWER LEVEL:          0  ACCURACY: -nan
PSCL2 TIMELY PREFETCHES:          0 LATE PREFETCHES: 0 DROPPED PREFETCHES: 0
PSCL2 COMMIT LATE PREFETCHES: 0 NORMAL LATE: 0 MISSED OPPORTUNITY: 0 UNCOVERED: 0
PSCL2 PREFETCHES SAME FILL-ORIGIN LEVEL: 0 DIFFERENT FILL-ORIGIN LEVEL: 0

LLC SPEC fills:          0  NON-SPEC fills:    2624144
LLC Test counter :          0
LLC Leapfrog:          0
LLC MSHR merge:          0
LLC TOTAL     ACCESS:   31444980  HIT:   13875413  MISS:   17569567  HIT %:     44.126  MISS %:     55.874   MPKI: 87.8478
LLC LOAD      TOTAL       ACCESS:   13632407  HIT:    5343659  MISS:    8288748  HIT %:    39.1982  MISS %:    60.8018   MPKI: 41.4437
LLC LOAD      NON_SPEC    ACCESS:    3379019  HIT:     754875  MISS:    2624144  HIT %:    22.3401  MISS %:    77.6599   MPKI: 13.1207
LLC LOAD      SPEC        ACCESS:   10253388  HIT:    4588784  MISS:    5664604  HIT %:    44.7538  MISS %:    55.2462   MPKI: 28.323
LLC RFO       NON_SPEC    ACCESS:      29055  HIT:        528  MISS:      28527  HIT %:    1.81724  MISS %:    98.1828   MPKI: 0.142635
LLC PREFETCH  NON_SPEC    ACCESS:    3192076  HIT:     345533  MISS:    2846543  HIT %:    10.8247  MISS %:    89.1753   MPKI: 14.2327
LLC WRITEBACK NON_SPEC    ACCESS:    2873736  HIT:    2873716  MISS:         20  HIT %:    99.9993  MISS %: 0.000695958   MPKI: 0.0001
LLC CLEAN_EVICTION NON_SPEC    ACCESS:   11467735  HIT:    5136386  MISS:    6331349  HIT %:    44.7899  MISS %:    55.2101   MPKI: 31.6567
LLC COMMIT LOAD NON_SPEC    ACCESS:     117607  HIT:      96990  MISS:      20617  HIT %:    82.4696  MISS %:    17.5304   MPKI: 0.103085
LLC LOAD TRANSLATION NON_SPEC    ACCESS:     112517  HIT:      69767  MISS:      42750  HIT %:    62.0057  MISS %:    37.9943   MPKI: 0.21375
LLC TRANSLATION FROM L1D PREFETCHER NON_SPEC    ACCESS:      19847  HIT:       8834  MISS:      11013  HIT %:    44.5105  MISS %:    55.4895   MPKI: 0.055065
LLC PREFETCH  REQUESTED:          0  ISSUED:          0  USEFUL:     197011  USELESS:    2665576
LLC USEFUL LOAD PREFETCHES:     197011 PREFETCH ISSUED TO LOWER LEVEL:    2846544  ACCURACY: 6.92106
LLC TIMELY PREFETCHES:     197011 LATE PREFETCHES: 0 DROPPED PREFETCHES: 0
LLC COMMIT LATE PREFETCHES: 0 NORMAL LATE: 0 MISSED OPPORTUNITY: 0 UNCOVERED: 0
LLC PREFETCHES SAME FILL-ORIGIN LEVEL: 0 DIFFERENT FILL-ORIGIN LEVEL: 0
LLC AVERAGE MISS LATENCY: 122.53 cycles
LLC AVERAGE MISS LATENCY LOAD: 171.695 cycles
LLC AVERAGE MISS LATENCY PREFETCH: 247.744 cycles
LLC AVERAGE MSHR OCCUPANCY: 1.22053
LLC MSHR FULL: 0
LLC RQ	ACCESS:   13911491	FORWARD:          0	MERGED:          0	TO_CACHE:   13911434
LLC WQ	ACCESS:   14341471	FORWARD:         61	MERGED:          0	TO_CACHE:   14341471
LLC PQ	ACCESS:    3192081	FORWARD:          0	MERGED:          0	TO_CACHE:    3192077

LLC Dense regions hint to LLC: 0

RAW hits: 804654
Loads Generated: 56336781
Loads sent to L1D: 55532128
Stores Generated: 11244939
Stores sent to L1D: 11244938
Major fault: 0 Minor fault: 31004
Allocated PAGES: 31004
Total Load insts: 68064927
Total Non-spec loads: 8127747
Percentage of speculative loads: 88.0588

LeapFrogging counter: 1316426
Commit hits: 37311331 miss: 10469780
Commit hit %: 78.088 miss %: 21.912
Commits not translated: 0
Loads retired: 16484487
Stores retired: 11244938
Cache fills: 16484489
L1D response latency: 119.539 cycles
Load retirement latency: 229.635 cycles
OOO test counter: 0
Discarded buffer inserts: 37311331 hits: 8067 hit %: 0.0216208
Filter prediction accuracy: -nan
ALL MISSES SIZE: 23340
LATENCY_FILL: 119.292 16455911
LATENCY_FILL_ROB: 197.056 19385315
test counter pref: 234309810
Max ROB Extended: 19
test counter pref: 248194129

DRAM Statistics
 CHANNEL 0
 RQ ROW_BUFFER_HIT:    1151646  ROW_BUFFER_MISS:   10084807
 DBUS_CONGESTED:       5778
 WQ ROW_BUFFER_HIT:    4563328  ROW_BUFFER_MISS:    5353224  FULL:       4400

 AVG_CONGESTED_CYCLE: 4
 All warmup complete: 2
Channel 0 Bank busy for read cycles: 0
Channel 0 Bank busy for write cycles: 0
Channel 0
Rank 0
0banks busy for read cycles: 9174646
0banks busy for write cycles: 52459
1banks busy for read cycles: 492731963
1banks busy for write cycles: 13800071
2banks busy for read cycles: 281489933
2banks busy for write cycles: 23220188
3banks busy for read cycles: 76379350
3banks busy for write cycles: 35930011
4banks busy for read cycles: 26385053
4banks busy for write cycles: 50250995
5banks busy for read cycles: 14310665
5banks busy for write cycles: 63543205
6banks busy for read cycles: 9139494
6banks busy for write cycles: 75019902
7banks busy for read cycles: 6257702
7banks busy for write cycles: 88842515
8banks busy for read cycles: 3726846
8banks busy for write cycles: 101905983

CPU 0 Branch Prediction Accuracy: 85.1853% MPKI: 26.0899 Average ROB Occupancy at Mispredict: 28.6548
Branch types
NOT_BRANCH: 164778077 82.389%
BRANCH_DIRECT_JUMP: 253973 0.126986%
BRANCH_INDIRECT: 0 0%
BRANCH_CONDITIONAL: 34967586 17.4838%
BRANCH_DIRECT_CALL: 14 7e-06%
BRANCH_INDIRECT_CALL: 0 0%
BRANCH_RETURN: 14 7e-06%
BRANCH_OTHER: 0 0%

DRAM PAGES: 1048576
Allocated PAGES: 31004
