
*** ChampSim Multicore Out-of-Order Simulator ***

Warmup Instructions: 50000000
Simulation Instructions: 200000000
Number of CPUs: 1
LLC sets: 2048
LLC ways: 16
L0D sets: 16
L0D ways: 2
ROB size: 352
LQ size: 128
SQ size: 72
Secure Berti: ON
Berti: ON
Berti Fill: ON
On commit prefetching: OFF
Hit-based filter: OFF
Time-guarding: ON
Free-slotting: ON
Leap-frogging: ON
Train prefetcher on L0D bypass: OFF
No translation penalty for prefetchers: OFF
Prefetch to L0D only: OFF
Prefetch to L1D only: OFF
Clean evictions: ON
Commit loads: ON
Commit write: ON
Fill commit loads to L2C, LLC: ON
DRAM IO FREQUENCY: 6400
ROB SIZE: 352
Off-chip DRAM Size: 4096 MB Channels: 1 Width: 64-bit Data Rate: 6400 MT/s
CPU 0 runs /home/sumon/secure_berti/GhostMinion/../../traces/gap/bc-3.trace.gz
.gz
BTB has LRU replacement policy
ITLB has LRU replacement policy
DTLB has LRU replacement policy
STLB has LRU replacement policy
L1I has LRU replacement policy
L0D has LRU replacement policy
Berti version on_commit
History Sets: 8
History Ways: 16
BERTI Size: 16
BERTI Stride Size: 16
History Sets: 8
History Ways: 16
BERTI Size: 16
BERTI Stride Size: 16
L1D has LRU replacement policy
L2C has LRU replacement policy
LLC has LRU replacement policy
Heartbeat CPU 0 instructions: 10000002 cycles: 3743699 heartbeat IPC: 2.67116 cumulative IPC: 2.67116 (Simulation time: 0 hr 1 min 54 sec) 
Heartbeat CPU 0 instructions: 20000000 cycles: 7055266 heartbeat IPC: 3.01972 cumulative IPC: 2.83476 (Simulation time: 0 hr 3 min 44 sec) 
Heartbeat CPU 0 instructions: 30000002 cycles: 10447828 heartbeat IPC: 2.94763 cumulative IPC: 2.87141 (Simulation time: 0 hr 5 min 31 sec) 
Heartbeat CPU 0 instructions: 40000003 cycles: 13863125 heartbeat IPC: 2.928 cumulative IPC: 2.88535 (Simulation time: 0 hr 7 min 19 sec) 
Heartbeat CPU 0 instructions: 50000003 cycles: 17278359 heartbeat IPC: 2.92806 cumulative IPC: 2.89379 (Simulation time: 0 hr 9 min 8 sec) 

Warmup complete CPU 0 instructions: 50000003 cycles: 17278359 (Simulation time: 0 hr 9 min 8 sec) 

Heartbeat CPU 0 instructions: 60000002 cycles: 71218338 heartbeat IPC: 0.185391 cumulative IPC: 0.185391 (Simulation time: 0 hr 12 min 2 sec) 
Heartbeat CPU 0 instructions: 70000000 cycles: 125098363 heartbeat IPC: 0.185597 cumulative IPC: 0.185494 (Simulation time: 0 hr 14 min 53 sec) 
Heartbeat CPU 0 instructions: 80000000 cycles: 179427314 heartbeat IPC: 0.184064 cumulative IPC: 0.185015 (Simulation time: 0 hr 17 min 45 sec) 
Heartbeat CPU 0 instructions: 90000002 cycles: 233583617 heartbeat IPC: 0.184651 cumulative IPC: 0.184924 (Simulation time: 0 hr 20 min 38 sec) 
Heartbeat CPU 0 instructions: 100000003 cycles: 287162265 heartbeat IPC: 0.186642 cumulative IPC: 0.185265 (Simulation time: 0 hr 23 min 29 sec) 
Heartbeat CPU 0 instructions: 110000000 cycles: 341256000 heartbeat IPC: 0.184864 cumulative IPC: 0.185198 (Simulation time: 0 hr 26 min 20 sec) 
Heartbeat CPU 0 instructions: 120000000 cycles: 394124779 heartbeat IPC: 0.189148 cumulative IPC: 0.185752 (Simulation time: 0 hr 29 min 10 sec) 
Heartbeat CPU 0 instructions: 130000003 cycles: 448265043 heartbeat IPC: 0.184705 cumulative IPC: 0.185621 (Simulation time: 0 hr 32 min 1 sec) 
Heartbeat CPU 0 instructions: 140000001 cycles: 502076377 heartbeat IPC: 0.185834 cumulative IPC: 0.185644 (Simulation time: 0 hr 34 min 53 sec) 
Heartbeat CPU 0 instructions: 150000001 cycles: 556188381 heartbeat IPC: 0.184802 cumulative IPC: 0.18556 (Simulation time: 0 hr 37 min 44 sec) 
Heartbeat CPU 0 instructions: 160000001 cycles: 608601671 heartbeat IPC: 0.190791 cumulative IPC: 0.186023 (Simulation time: 0 hr 40 min 32 sec) 
Heartbeat CPU 0 instructions: 170000000 cycles: 660432495 heartbeat IPC: 0.192935 cumulative IPC: 0.18658 (Simulation time: 0 hr 43 min 18 sec) 
Heartbeat CPU 0 instructions: 180000000 cycles: 711366248 heartbeat IPC: 0.196333 cumulative IPC: 0.187296 (Simulation time: 0 hr 46 min 6 sec) 
Heartbeat CPU 0 instructions: 190000001 cycles: 761808484 heartbeat IPC: 0.198247 cumulative IPC: 0.188038 (Simulation time: 0 hr 48 min 51 sec) 
Heartbeat CPU 0 instructions: 200000000 cycles: 812256313 heartbeat IPC: 0.198225 cumulative IPC: 0.188684 (Simulation time: 0 hr 51 min 37 sec) 
Heartbeat CPU 0 instructions: 210000000 cycles: 862683624 heartbeat IPC: 0.198305 cumulative IPC: 0.189258 (Simulation time: 0 hr 54 min 22 sec) 
Heartbeat CPU 0 instructions: 220000000 cycles: 913203439 heartbeat IPC: 0.197942 cumulative IPC: 0.189748 (Simulation time: 0 hr 57 min 6 sec) 
Heartbeat CPU 0 instructions: 230000000 cycles: 963885583 heartbeat IPC: 0.197308 cumulative IPC: 0.190153 (Simulation time: 0 hr 59 min 52 sec) 
Heartbeat CPU 0 instructions: 240000000 cycles: 1014453424 heartbeat IPC: 0.197754 cumulative IPC: 0.190538 (Simulation time: 1 hr 2 min 37 sec) 
Heartbeat CPU 0 instructions: 250000003 cycles: 1064881495 heartbeat IPC: 0.198302 cumulative IPC: 0.190912 (Simulation time: 1 hr 5 min 22 sec) 
Finished CPU 0 instructions: 200000000 cycles: 1047603136 cumulative IPC: 0.190912 (Simulation time: 1 hr 5 min 22 sec) 
 Instruction ID: 250000107

ChampSim completed all CPUs

Region of Interest Statistics

CPU 0 cumulative IPC: 0.190912 instructions: 200000000 cycles: 1047603136
ITLB SPEC fills:          0  NON-SPEC fills:          0
ITLB Test counter :          0
ITLB Leapfrog:          0
ITLB MSHR merge:          0
ITLB TOTAL     ACCESS:   42179061  HIT:   42179061  MISS:          0  HIT %:        100  MISS %:          0   MPKI: 0
ITLB LOAD TRANSLATION NON_SPEC    ACCESS:   42179061  HIT:   42179061  MISS:          0  HIT %:        100  MISS %:          0   MPKI: 0
ITLB PREFETCH  REQUESTED:          0  ISSUED:          0  USEFUL:          0  USELESS:          0
ITLB USEFUL LOAD PREFETCHES:          0 PREFETCH ISSUED TO LOWER LEVEL:          0  ACCURACY: -nan
ITLB TIMELY PREFETCHES:          0 LATE PREFETCHES: 0 DROPPED PREFETCHES: 0
ITLB COMMIT LATE PREFETCHES: 0 NORMAL LATE: 0 MISSED OPPORTUNITY: 0 UNCOVERED: 0
ITLB PREFETCHES SAME FILL-ORIGIN LEVEL: 0 DIFFERENT FILL-ORIGIN LEVEL: 0
ITLB AVERAGE MISS LATENCY: -nan cycles
ITLB AVERAGE MISS LATENCY LOAD: -nan cycles
ITLB AVERAGE MISS LATENCY PREFETCH: -nan cycles
ITLB AVERAGE MSHR OCCUPANCY: 0
ITLB MSHR FULL: 0
ITLB RQ	ACCESS:   42460066	FORWARD:          0	MERGED:     281006	TO_CACHE:   42179060

DTLB SPEC fills:          0  NON-SPEC fills:          0
DTLB Test counter :          0
DTLB Leapfrog:          0
DTLB MSHR merge:          0
DTLB TOTAL     ACCESS:   48652442  HIT:   38296003  MISS:   10356439  HIT %:    78.7134  MISS %:    21.2866   MPKI: 51.7822
DTLB LOAD TRANSLATION NON_SPEC    ACCESS:   48652442  HIT:   38296003  MISS:   10356439  HIT %:    78.7134  MISS %:    21.2866   MPKI: 51.7822
DTLB PREFETCH  REQUESTED:          0  ISSUED:          0  USEFUL:          0  USELESS:          0
DTLB USEFUL LOAD PREFETCHES:          0 PREFETCH ISSUED TO LOWER LEVEL:          0  ACCURACY: -nan
DTLB TIMELY PREFETCHES:          0 LATE PREFETCHES: 0 DROPPED PREFETCHES: 0
DTLB COMMIT LATE PREFETCHES: 0 NORMAL LATE: 0 MISSED OPPORTUNITY: 0 UNCOVERED: 0
DTLB PREFETCHES SAME FILL-ORIGIN LEVEL: 0 DIFFERENT FILL-ORIGIN LEVEL: 0
DTLB AVERAGE MISS LATENCY: 25.666 cycles
DTLB AVERAGE MISS LATENCY LOAD: -nan cycles
DTLB AVERAGE MISS LATENCY PREFETCH: -nan cycles
DTLB AVERAGE MSHR OCCUPANCY: 0.471068
DTLB MSHR FULL: 0.00413528
DTLB RQ	ACCESS:   53005725	FORWARD:          0	MERGED:    3700183	TO_CACHE:   49305542

STLB SPEC fills:          0  NON-SPEC fills:          0
STLB Test counter :          0
STLB Leapfrog:          0
STLB MSHR merge:          0
STLB TOTAL     ACCESS:   21171953  HIT:   18980597  MISS:    2191356  HIT %:    89.6497  MISS %:    10.3503   MPKI: 10.9568
STLB LOAD TRANSLATION NON_SPEC    ACCESS:   10356439  HIT:    8229757  MISS:    2126682  HIT %:    79.4651  MISS %:    20.5349   MPKI: 10.6334
STLB TRANSLATION FROM L1D PREFETCHER NON_SPEC    ACCESS:   10815514  HIT:   10750840  MISS:      64674  HIT %:     99.402  MISS %:   0.597974   MPKI: 0.32337
STLB PREFETCH  REQUESTED:          0  ISSUED:          0  USEFUL:      62623  USELESS:       2052
STLB USEFUL LOAD PREFETCHES:      62623 PREFETCH ISSUED TO LOWER LEVEL:          0  ACCURACY: inf
STLB TIMELY PREFETCHES:      62623 LATE PREFETCHES: 12537 DROPPED PREFETCHES: 964343
STLB COMMIT LATE PREFETCHES: 0 NORMAL LATE: 0 MISSED OPPORTUNITY: 0 UNCOVERED: 0
STLB PREFETCHES SAME FILL-ORIGIN LEVEL: 0 DIFFERENT FILL-ORIGIN LEVEL: 0
STLB AVERAGE MISS LATENCY: 80.921 cycles
STLB AVERAGE MISS LATENCY LOAD: -nan cycles
STLB AVERAGE MISS LATENCY PREFETCH: -nan cycles
STLB AVERAGE MSHR OCCUPANCY: 0.33499
STLB MSHR FULL: 0
STLB RQ	ACCESS:   47673773	FORWARD:          0	MERGED:   25438364	TO_CACHE:   22235409

STLB Hit, L1D data hit: 0
STLB Hit, L2C data hit: 0
STLB Hit, LLC data hit: 0
STLB Hit, LLC data miss: 0
STLB STLB hints to L2: 0
L0D SPEC fills:   29842583  NON-SPEC fills:          0
L0D TimeGuard Request with older TS:     326690 Restricted eviction:     381380 read:          3
L0D Test counter :          0
L0D Leapfrog:          0
L0D MSHR merge:     400718
L0D TOTAL     ACCESS:   45976503  HIT:   12005990  MISS:   33970513  HIT %:    26.1133  MISS %:    73.8867   MPKI: 169.853
L0D LOAD      TOTAL       ACCESS:   45976503  HIT:   12005990  MISS:   33970513  HIT %:    26.1133  MISS %:    73.8867   MPKI: 169.853
L0D LOAD      NON_SPEC    ACCESS:    3748234  HIT:       1524  MISS:    3746710  HIT %:  0.0406591  MISS %:    99.9593   MPKI: 18.7336
L0D LOAD      SPEC        ACCESS:   42228269  HIT:   12004466  MISS:   30223803  HIT %:    28.4276  MISS %:    71.5724   MPKI: 151.119
L0D PREFETCH  REQUESTED:          0  ISSUED:          0  USEFUL:          0  USELESS:          0
L0D USEFUL LOAD PREFETCHES:          0 PREFETCH ISSUED TO LOWER LEVEL:          0  ACCURACY: -nan
L0D TIMELY PREFETCHES:          0 LATE PREFETCHES: 0 DROPPED PREFETCHES: 0
L0D COMMIT LATE PREFETCHES: 0 NORMAL LATE: 0 MISSED OPPORTUNITY: 0 UNCOVERED: 0
L0D PREFETCHES SAME FILL-ORIGIN LEVEL: 0 DIFFERENT FILL-ORIGIN LEVEL: 0
L0D AVERAGE MISS LATENCY: 56.4005 cycles
L0D AVERAGE MISS LATENCY LOAD: 56.4005 cycles
L0D AVERAGE MISS LATENCY PREFETCH: -nan cycles
L0D AVERAGE MSHR OCCUPANCY: 1.75846
L0D MSHR FULL: 0.0516264
L0D RQ	ACCESS:   47847567	FORWARD:          0	MERGED:    1470350	TO_CACHE:   46377217
L0D WQ	ACCESS:    6628508	FORWARD:          0	MERGED:          0	TO_CACHE:    6628508

L1D SPEC fills:          0  NON-SPEC fills:     669408
L1D Test counter :   16873385
L1D Leapfrog:          0
L1D MSHR merge:      14982
L1D TOTAL     ACCESS:   92570657  HIT:   58370809  MISS:   34199848  HIT %:    63.0554  MISS %:    36.9446   MPKI: 170.999
L1D LOAD      TOTAL       ACCESS:   33968423  HIT:   17033674  MISS:   16934749  HIT %:    50.1456  MISS %:    49.8544   MPKI: 84.6737
L1D LOAD      NON_SPEC    ACCESS:    3745258  HIT:    3075850  MISS:     669408  HIT %:    82.1265  MISS %:    17.8735   MPKI: 3.34704
L1D LOAD      SPEC        ACCESS:   30223165  HIT:   13957824  MISS:   16265341  HIT %:    46.1825  MISS %:    53.8175   MPKI: 81.3267
L1D RFO       NON_SPEC    ACCESS:    2911373  HIT:    2881749  MISS:      29624  HIT %:    98.9825  MISS %:    1.01753   MPKI: 0.14812
L1D PREFETCH  NON_SPEC    ACCESS:   16014352  HIT:   15047660  MISS:     966692  HIT %:    93.9636  MISS %:    6.03641   MPKI: 4.83346
L1D COMMIT LOAD NON_SPEC    ACCESS:   10135756  HIT:    9832535  MISS:     303221  HIT %:    97.0084  MISS %:     2.9916   MPKI: 1.51611
L1D COMMIT WRITE NON_SPEC    ACCESS:   29540753  HIT:   13575191  MISS:   15965562  HIT %:    45.9541  MISS %:    54.0459   MPKI: 79.8278
L1D PREFETCH  REQUESTED:   91922864  ISSUED:   91195288  USEFUL:     877130  USELESS:      89568
L1D USEFUL LOAD PREFETCHES:     877130 PREFETCH ISSUED TO LOWER LEVEL:   19856435  ACCURACY: 4.41736
L1D TIMELY PREFETCHES:     877130 LATE PREFETCHES: 13905 DROPPED PREFETCHES: 2147281
L1D COMMIT LATE PREFETCHES: 52475 NORMAL LATE: 18510 MISSED OPPORTUNITY: 33386 UNCOVERED: 16831776
L1D PREFETCHES SAME FILL-ORIGIN LEVEL: 980598 DIFFERENT FILL-ORIGIN LEVEL: 18875837
L1D AVERAGE MISS LATENCY: 53.5368 cycles
L1D AVERAGE MISS LATENCY LOAD: 102.956 cycles
L1D AVERAGE MISS LATENCY PREFETCH: 61.9715 cycles
L1D AVERAGE MSHR OCCUPANCY: 1.33069
L1D MSHR FULL: 0.0141201
L1D RQ	ACCESS:   48528979	FORWARD:          0	MERGED:    4338630	TO_CACHE:   44108561
L1D WQ	ACCESS:   36169372	FORWARD:      81788	MERGED:    3665529	TO_CACHE:   32503843
L1D PQ	ACCESS:   91195288	FORWARD:          0	MERGED:   53877954	TO_CACHE:   37317334

L1D UNIQUE REGIONS ACCESSED: 0
L1D REGIONS CONFLICTS: 0
L1D Cross Page Prefetch Requests: 13280084
L1D Same Page Prefetch Requests: 99615885
L1D ROI Sum of L1D PQ occupancy: 872670240
L1D PREFETCHES PUSHED FROM L2C: 0
L1I SPEC fills:          0  NON-SPEC fills:          0
L1I Test counter :          0
L1I Leapfrog:          0
L1I MSHR merge:          0
L1I TOTAL     ACCESS:   42460065  HIT:   42460065  MISS:          0  HIT %:        100  MISS %:          0   MPKI: 0
L1I LOAD      TOTAL       ACCESS:   42460065  HIT:   42460065  MISS:          0  HIT %:        100  MISS %:          0   MPKI: 0
L1I LOAD      NON_SPEC    ACCESS:   42460065  HIT:   42460065  MISS:          0  HIT %:        100  MISS %:          0   MPKI: 0
L1I PREFETCH  REQUESTED:          0  ISSUED:          0  USEFUL:          0  USELESS:          0
L1I USEFUL LOAD PREFETCHES:          0 PREFETCH ISSUED TO LOWER LEVEL:          0  ACCURACY: -nan
L1I TIMELY PREFETCHES:          0 LATE PREFETCHES: 0 DROPPED PREFETCHES: 0
L1I COMMIT LATE PREFETCHES: 0 NORMAL LATE: 0 MISSED OPPORTUNITY: 0 UNCOVERED: 0
L1I PREFETCHES SAME FILL-ORIGIN LEVEL: 0 DIFFERENT FILL-ORIGIN LEVEL: 0
L1I AVERAGE MISS LATENCY: -nan cycles
L1I AVERAGE MISS LATENCY LOAD: -nan cycles
L1I AVERAGE MISS LATENCY PREFETCH: -nan cycles
L1I AVERAGE MSHR OCCUPANCY: 0
L1I MSHR FULL: 0
L1I RQ	ACCESS:   56789497	FORWARD:          0	MERGED:   14329431	TO_CACHE:   42460066

BTB SPEC fills:          0  NON-SPEC fills:          0
BTB Test counter :          0
BTB Leapfrog:          0
BTB MSHR merge:          0
BTB TOTAL     ACCESS:   43358665  HIT:   43358651  MISS:         14  HIT %:        100  MISS %: 3.22888e-05   MPKI: 7e-05
BTB BRANCH_DIRECT_JUMP	ACCESS:     271551  HIT:     271547  MISS:          4
BTB BRANCH_INDIRECT	ACCESS:          0  HIT:          0  MISS:          0
BTB BRANCH_CONDITIONAL	ACCESS:   43087086  HIT:   43087078  MISS:          8
BTB BRANCH_DIRECT_CALL	ACCESS:         14  HIT:         13  MISS:          1
BTB BRANCH_INDIRECT_CALL	ACCESS:          0  HIT:          0  MISS:          0
BTB BRANCH_RETURN	ACCESS:         14  HIT:         13  MISS:          1
BTB BRANCH_OTHER ACCESS:          0  HIT:          0  MISS:          0

L2C SPEC fills:          0  NON-SPEC fills:     519394
L2C Test counter :          0
L2C Leapfrog:          0
L2C MSHR merge:      45597
L2C TOTAL     ACCESS:   68975732  HIT:   40292397  MISS:   28683335  HIT %:    58.4153  MISS %:    41.5847   MPKI: 143.417
L2C LOAD      TOTAL       ACCESS:   16921793  HIT:    3645651  MISS:   13276142  HIT %:    21.5441  MISS %:    78.4559   MPKI: 66.3807
L2C LOAD      NON_SPEC    ACCESS:     669154  HIT:     149760  MISS:     519394  HIT %:    22.3805  MISS %:    77.6195   MPKI: 2.59697
L2C LOAD      SPEC        ACCESS:   16252639  HIT:    3495891  MISS:   12756748  HIT %:    21.5097  MISS %:    78.4903   MPKI: 63.7837
L2C RFO       NON_SPEC    ACCESS:      29623  HIT:        910  MISS:      28713  HIT %:    3.07194  MISS %:    96.9281   MPKI: 0.143565
L2C PREFETCH  NON_SPEC    ACCESS:   18851106  HIT:   16592405  MISS:    2258701  HIT %:    88.0182  MISS %:    11.9818   MPKI: 11.2935
L2C WRITEBACK NON_SPEC    ACCESS:     214540  HIT:     214484  MISS:         56  HIT %:    99.9739  MISS %:  0.0261024   MPKI: 0.00028
L2C CLEAN_EVICTION NON_SPEC    ACCESS:   16860705  HIT:    4084738  MISS:   12775967  HIT %:    24.2264  MISS %:    75.7736   MPKI: 63.8798
L2C COMMIT LOAD NON_SPEC    ACCESS:     302065  HIT:     119315  MISS:     182750  HIT %:    39.4998  MISS %:    60.5002   MPKI: 0.91375
L2C LOAD TRANSLATION NON_SPEC    ACCESS:   10588130  HIT:   10439783  MISS:     148347  HIT %:    98.5989  MISS %:    1.40107   MPKI: 0.741735
L2C TRANSLATION FROM L1D PREFETCHER NON_SPEC    ACCESS:    5207770  HIT:    5195111  MISS:      12659  HIT %:    99.7569  MISS %:   0.243079   MPKI: 0.063295
L2C PREFETCH  REQUESTED:          0  ISSUED:          0  USEFUL:     227420  USELESS:    2043913
L2C USEFUL LOAD PREFETCHES:     227420 PREFETCH ISSUED TO LOWER LEVEL:    2304867  ACCURACY: 9.86695
L2C TIMELY PREFETCHES:     227420 LATE PREFETCHES: 46166 DROPPED PREFETCHES: 0
L2C COMMIT LATE PREFETCHES: 0 NORMAL LATE: 46851 MISSED OPPORTUNITY: 0 UNCOVERED: 13229860
L2C PREFETCHES SAME FILL-ORIGIN LEVEL: 2101456 DIFFERENT FILL-ORIGIN LEVEL: 0
L2C AVERAGE MISS LATENCY: 73.823 cycles
L2C AVERAGE MISS LATENCY LOAD: 116.608 cycles
L2C AVERAGE MISS LATENCY PREFETCH: 236.273 cycles
L2C AVERAGE MSHR OCCUPANCY: 1.73432
L2C MSHR FULL: 0
L2C RQ	ACCESS:   33049589	FORWARD:          0	MERGED:          0	TO_CACHE:   33049381
L2C WQ	ACCESS:   17075267	FORWARD:        209	MERGED:         18	TO_CACHE:   17075249
L2C PQ	ACCESS:   19856348	FORWARD:          0	MERGED:      15429	TO_CACHE:   19840918

L2C Instructions Evicting Data 0
L2C Translations Evicting Data 160667
L2C Data Evicting Data 2957351
L2C Instructions Evicting Instructions 0
L2C Translations Evicting Instructions 0
L2C Data Evicting Instructions 0
L2C Instructions Evicting Translations 0
L2C Translations Evicting Translations 339
L2C Data Evicting Translations 32207
L2C Dense regions hint from L2: 0
PSCL5 SPEC fills:          0  NON-SPEC fills:          0
PSCL5 Test counter :          0
PSCL5 Leapfrog:          0
PSCL5 MSHR merge:          0
PSCL5 TOTAL     ACCESS:          0  HIT:          0  MISS:          0  HIT %:       -nan  MISS %:       -nan   MPKI: 0
PSCL5 PREFETCH  REQUESTED:          0  ISSUED:          0  USEFUL:          0  USELESS:          0
PSCL5 USEFUL LOAD PREFETCHES:          0 PREFETCH ISSUED TO LOWER LEVEL:          0  ACCURACY: -nan
PSCL5 TIMELY PREFETCHES:          0 LATE PREFETCHES: 0 DROPPED PREFETCHES: 0
PSCL5 COMMIT LATE PREFETCHES: 0 NORMAL LATE: 0 MISSED OPPORTUNITY: 0 UNCOVERED: 0
PSCL5 PREFETCHES SAME FILL-ORIGIN LEVEL: 0 DIFFERENT FILL-ORIGIN LEVEL: 0

PSCL4 SPEC fills:          0  NON-SPEC fills:          0
PSCL4 Test counter :          0
PSCL4 Leapfrog:          0
PSCL4 MSHR merge:          0
PSCL4 TOTAL     ACCESS:          0  HIT:          0  MISS:          0  HIT %:       -nan  MISS %:       -nan   MPKI: 0
PSCL4 PREFETCH  REQUESTED:          0  ISSUED:          0  USEFUL:          0  USELESS:          0
PSCL4 USEFUL LOAD PREFETCHES:          0 PREFETCH ISSUED TO LOWER LEVEL:          0  ACCURACY: -nan
PSCL4 TIMELY PREFETCHES:          0 LATE PREFETCHES: 0 DROPPED PREFETCHES: 0
PSCL4 COMMIT LATE PREFETCHES: 0 NORMAL LATE: 0 MISSED OPPORTUNITY: 0 UNCOVERED: 0
PSCL4 PREFETCHES SAME FILL-ORIGIN LEVEL: 0 DIFFERENT FILL-ORIGIN LEVEL: 0

PSCL3 SPEC fills:          0  NON-SPEC fills:          0
PSCL3 Test counter :          0
PSCL3 Leapfrog:          0
PSCL3 MSHR merge:          0
PSCL3 TOTAL     ACCESS:          0  HIT:          0  MISS:          0  HIT %:       -nan  MISS %:       -nan   MPKI: 0
PSCL3 PREFETCH  REQUESTED:          0  ISSUED:          0  USEFUL:          0  USELESS:          0
PSCL3 USEFUL LOAD PREFETCHES:          0 PREFETCH ISSUED TO LOWER LEVEL:          0  ACCURACY: -nan
PSCL3 TIMELY PREFETCHES:          0 LATE PREFETCHES: 0 DROPPED PREFETCHES: 0
PSCL3 COMMIT LATE PREFETCHES: 0 NORMAL LATE: 0 MISSED OPPORTUNITY: 0 UNCOVERED: 0
PSCL3 PREFETCHES SAME FILL-ORIGIN LEVEL: 0 DIFFERENT FILL-ORIGIN LEVEL: 0

PSCL2 SPEC fills:          0  NON-SPEC fills:          0
PSCL2 Test counter :          0
PSCL2 Leapfrog:          0
PSCL2 MSHR merge:          0
PSCL2 TOTAL     ACCESS:          0  HIT:          0  MISS:          0  HIT %:       -nan  MISS %:       -nan   MPKI: 0
PSCL2 PREFETCH  REQUESTED:          0  ISSUED:          0  USEFUL:          0  USELESS:          0
PSCL2 USEFUL LOAD PREFETCHES:          0 PREFETCH ISSUED TO LOWER LEVEL:          0  ACCURACY: -nan
PSCL2 TIMELY PREFETCHES:          0 LATE PREFETCHES: 0 DROPPED PREFETCHES: 0
PSCL2 COMMIT LATE PREFETCHES: 0 NORMAL LATE: 0 MISSED OPPORTUNITY: 0 UNCOVERED: 0
PSCL2 PREFETCHES SAME FILL-ORIGIN LEVEL: 0 DIFFERENT FILL-ORIGIN LEVEL: 0

LLC SPEC fills:          0  NON-SPEC fills:     308057
LLC Test counter :          0
LLC Leapfrog:          0
LLC MSHR merge:          0
LLC TOTAL     ACCESS:   30058654  HIT:   13145374  MISS:   16913280  HIT %:    43.7324  MISS %:    56.2676   MPKI: 84.5664
LLC LOAD      TOTAL       ACCESS:   13230466  HIT:    6049446  MISS:    7181020  HIT %:    45.7236  MISS %:    54.2764   MPKI: 35.9051
LLC LOAD      NON_SPEC    ACCESS:     517797  HIT:     209740  MISS:     308057  HIT %:    40.5062  MISS %:    59.4938   MPKI: 1.54028
LLC LOAD      SPEC        ACCESS:   12712669  HIT:    5839706  MISS:    6872963  HIT %:    45.9361  MISS %:    54.0639   MPKI: 34.3648
LLC RFO       NON_SPEC    ACCESS:      28713  HIT:        612  MISS:      28101  HIT %:    2.13144  MISS %:    97.8686   MPKI: 0.140505
LLC PREFETCH  NON_SPEC    ACCESS:    2304863  HIT:     261078  MISS:    2043785  HIT %:    11.3273  MISS %:    88.6727   MPKI: 10.2189
LLC WRITEBACK NON_SPEC    ACCESS:     209101  HIT:     209098  MISS:          3  HIT %:    99.9986  MISS %: 0.00143471   MPKI: 1.5e-05
LLC CLEAN_EVICTION NON_SPEC    ACCESS:   13942406  HIT:    6348520  MISS:    7593886  HIT %:    45.5339  MISS %:    54.4661   MPKI: 37.9694
LLC COMMIT LOAD NON_SPEC    ACCESS:     182099  HIT:     156031  MISS:      26068  HIT %:    85.6847  MISS %:    14.3153   MPKI: 0.13034
LLC LOAD TRANSLATION NON_SPEC    ACCESS:     148347  HIT:     113608  MISS:      34739  HIT %:    76.5826  MISS %:    23.4174   MPKI: 0.173695
LLC TRANSLATION FROM L1D PREFETCHER NON_SPEC    ACCESS:      12659  HIT:       6981  MISS:       5678  HIT %:    55.1465  MISS %:    44.8535   MPKI: 0.02839
LLC PREFETCH  REQUESTED:          0  ISSUED:          0  USEFUL:     133550  USELESS:    1915434
LLC USEFUL LOAD PREFETCHES:     133550 PREFETCH ISSUED TO LOWER LEVEL:    2043785  ACCURACY: 6.53444
LLC TIMELY PREFETCHES:     133550 LATE PREFETCHES: 0 DROPPED PREFETCHES: 0
LLC COMMIT LATE PREFETCHES: 0 NORMAL LATE: 0 MISSED OPPORTUNITY: 0 UNCOVERED: 0
LLC PREFETCHES SAME FILL-ORIGIN LEVEL: 0 DIFFERENT FILL-ORIGIN LEVEL: 0
LLC AVERAGE MISS LATENCY: 104.037 cycles
LLC AVERAGE MISS LATENCY LOAD: 174.696 cycles
LLC AVERAGE MISS LATENCY PREFETCH: 235.188 cycles
LLC AVERAGE MSHR OCCUPANCY: 1.4656
LLC MSHR FULL: 0
LLC RQ	ACCESS:   13602445	FORWARD:          0	MERGED:          0	TO_CACHE:   13602284
LLC WQ	ACCESS:   14151509	FORWARD:        165	MERGED:          0	TO_CACHE:   14151509
LLC PQ	ACCESS:    2304867	FORWARD:          0	MERGED:          0	TO_CACHE:    2304863

LLC Dense regions hint to LLC: 0

RAW hits: 155378
Loads Generated: 48002947
Loads sent to L1D: 47847567
Stores Generated: 6628506
Stores sent to L1D: 6628508
Major fault: 0 Minor fault: 32429
Allocated PAGES: 32429
Total Load insts: 59411943
Total Non-spec loads: 4013768
Percentage of speculative loads: 93.2442

LeapFrogging counter: 462881
Commit hits: 29540882 miss: 14558466
Commit hit %: 66.9871 miss %: 33.0129
Commits not translated: 0
Loads retired: 16934747
Stores retired: 6628508
Cache fills: 16934749
L1D response latency: 102.956 cycles
Load retirement latency: 226.368 cycles
OOO test counter: 0
Discarded buffer inserts: 29540882 hits: 11797 hit %: 0.0399345
Filter prediction accuracy: -nan
ALL MISSES SIZE: 28664
LATENCY_FILL: 102.702 16910279
LATENCY_FILL_ROB: 202.003 17057410
test counter pref: 274353512
Max ROB Extended: 20
test counter pref: 206325814

DRAM Statistics
 CHANNEL 0
 RQ ROW_BUFFER_HIT:     740864  ROW_BUFFER_MISS:    8574509
 DBUS_CONGESTED:       2117
 WQ ROW_BUFFER_HIT:    4295154  ROW_BUFFER_MISS:    4664190  FULL:      24259

 AVG_CONGESTED_CYCLE: 5
 All warmup complete: 2
Channel 0 Bank busy for read cycles: 0
Channel 0 Bank busy for write cycles: 0
Channel 0
Rank 0
0banks busy for read cycles: 3889968
0banks busy for write cycles: 2442
1banks busy for read cycles: 335079360
1banks busy for write cycles: 3299149
2banks busy for read cycles: 236392070
2banks busy for write cycles: 3711018
3banks busy for read cycles: 94949817
3banks busy for write cycles: 4487665
4banks busy for read cycles: 31253089
4banks busy for write cycles: 6273881
5banks busy for read cycles: 10730958
5banks busy for write cycles: 11035886
6banks busy for read cycles: 4705041
6banks busy for write cycles: 28735908
7banks busy for read cycles: 3078292
7banks busy for write cycles: 89071583
8banks busy for read cycles: 1736336
8banks busy for write cycles: 179170674

CPU 0 Branch Prediction Accuracy: 92.9184% MPKI: 15.3683 Average ROB Occupancy at Mispredict: 48.4031
Branch types
NOT_BRANCH: 156596269 78.2981%
BRANCH_DIRECT_JUMP: 271551 0.135775%
BRANCH_INDIRECT: 0 0%
BRANCH_CONDITIONAL: 43131886 21.5659%
BRANCH_DIRECT_CALL: 14 7e-06%
BRANCH_INDIRECT_CALL: 0 0%
BRANCH_RETURN: 14 7e-06%
BRANCH_OTHER: 0 0%

DRAM PAGES: 1048576
Allocated PAGES: 32429
