
*** ChampSim Multicore Out-of-Order Simulator ***

Warmup Instructions: 50000000
Simulation Instructions: 200000000
Number of CPUs: 1
LLC sets: 2048
LLC ways: 16
L0D sets: 16
L0D ways: 2
ROB size: 352
LQ size: 128
SQ size: 72
Secure Berti: ON
Berti: ON
Berti Fill: ON
On commit prefetching: OFF
Hit-based filter: OFF
Time-guarding: ON
Free-slotting: ON
Leap-frogging: ON
Train prefetcher on L0D bypass: OFF
No translation penalty for prefetchers: OFF
Prefetch to L0D only: OFF
Prefetch to L1D only: OFF
Clean evictions: ON
Commit loads: ON
Commit write: ON
Fill commit loads to L2C, LLC: ON
DRAM IO FREQUENCY: 6400
ROB SIZE: 352
Off-chip DRAM Size: 4096 MB Channels: 1 Width: 64-bit Data Rate: 6400 MT/s
CPU 0 runs /home/sumon/secure_berti/GhostMinion/../../traces/gap/bfs-10.trace.gz
.gz
BTB has LRU replacement policy
ITLB has LRU replacement policy
DTLB has LRU replacement policy
STLB has LRU replacement policy
L1I has LRU replacement policy
L0D has LRU replacement policy
Berti version on_commit
History Sets: 8
History Ways: 16
BERTI Size: 16
BERTI Stride Size: 16
History Sets: 8
History Ways: 16
BERTI Size: 16
BERTI Stride Size: 16
L1D has LRU replacement policy
L2C has LRU replacement policy
LLC has LRU replacement policy
Heartbeat CPU 0 instructions: 10000002 cycles: 2972907 heartbeat IPC: 3.36371 cumulative IPC: 3.36371 (Simulation time: 0 hr 1 min 7 sec) 
Heartbeat CPU 0 instructions: 20000001 cycles: 6060479 heartbeat IPC: 3.23879 cumulative IPC: 3.30007 (Simulation time: 0 hr 2 min 41 sec) 
Heartbeat CPU 0 instructions: 30000003 cycles: 9138097 heartbeat IPC: 3.24927 cumulative IPC: 3.28296 (Simulation time: 0 hr 4 min 16 sec) 
Heartbeat CPU 0 instructions: 40000001 cycles: 12215399 heartbeat IPC: 3.2496 cumulative IPC: 3.27456 (Simulation time: 0 hr 5 min 52 sec) 
Heartbeat CPU 0 instructions: 50000000 cycles: 15292018 heartbeat IPC: 3.25032 cumulative IPC: 3.26968 (Simulation time: 0 hr 7 min 27 sec) 

Warmup complete CPU 0 instructions: 50000004 cycles: 15292019 (Simulation time: 0 hr 7 min 27 sec) 

Heartbeat CPU 0 instructions: 60000001 cycles: 52123383 heartbeat IPC: 0.271508 cumulative IPC: 0.271508 (Simulation time: 0 hr 9 min 38 sec) 
Heartbeat CPU 0 instructions: 70000003 cycles: 95460013 heartbeat IPC: 0.230752 cumulative IPC: 0.249476 (Simulation time: 0 hr 12 min 0 sec) 
Heartbeat CPU 0 instructions: 80000002 cycles: 124890939 heartbeat IPC: 0.339779 cumulative IPC: 0.273725 (Simulation time: 0 hr 14 min 6 sec) 
Heartbeat CPU 0 instructions: 90000000 cycles: 139047582 heartbeat IPC: 0.706382 cumulative IPC: 0.323218 (Simulation time: 0 hr 15 min 33 sec) 
Heartbeat CPU 0 instructions: 100000000 cycles: 157025483 heartbeat IPC: 0.556238 cumulative IPC: 0.352775 (Simulation time: 0 hr 17 min 30 sec) 
Heartbeat CPU 0 instructions: 110000000 cycles: 183762353 heartbeat IPC: 0.374015 cumulative IPC: 0.356146 (Simulation time: 0 hr 19 min 29 sec) 
Heartbeat CPU 0 instructions: 120000000 cycles: 222088598 heartbeat IPC: 0.260918 cumulative IPC: 0.338497 (Simulation time: 0 hr 21 min 33 sec) 
Heartbeat CPU 0 instructions: 130000002 cycles: 260359463 heartbeat IPC: 0.261295 cumulative IPC: 0.326441 (Simulation time: 0 hr 23 min 35 sec) 
Heartbeat CPU 0 instructions: 140000001 cycles: 301950857 heartbeat IPC: 0.240434 cumulative IPC: 0.313962 (Simulation time: 0 hr 25 min 43 sec) 
Heartbeat CPU 0 instructions: 150000003 cycles: 345961056 heartbeat IPC: 0.22722 cumulative IPC: 0.302417 (Simulation time: 0 hr 28 min 0 sec) 
Heartbeat CPU 0 instructions: 160000001 cycles: 369470730 heartbeat IPC: 0.425357 cumulative IPC: 0.310578 (Simulation time: 0 hr 29 min 56 sec) 
Heartbeat CPU 0 instructions: 170000001 cycles: 383157591 heartbeat IPC: 0.730628 cumulative IPC: 0.326206 (Simulation time: 0 hr 31 min 27 sec) 
Heartbeat CPU 0 instructions: 180000000 cycles: 402814435 heartbeat IPC: 0.508729 cumulative IPC: 0.335464 (Simulation time: 0 hr 33 min 25 sec) 
Heartbeat CPU 0 instructions: 190000000 cycles: 433328996 heartbeat IPC: 0.327712 cumulative IPC: 0.334899 (Simulation time: 0 hr 35 min 26 sec) 
Heartbeat CPU 0 instructions: 200000000 cycles: 471494912 heartbeat IPC: 0.262014 cumulative IPC: 0.328801 (Simulation time: 0 hr 37 min 30 sec) 
Heartbeat CPU 0 instructions: 210000002 cycles: 509570996 heartbeat IPC: 0.262632 cumulative IPC: 0.323704 (Simulation time: 0 hr 39 min 34 sec) 
Heartbeat CPU 0 instructions: 220000000 cycles: 553483838 heartbeat IPC: 0.227724 cumulative IPC: 0.315872 (Simulation time: 0 hr 41 min 48 sec) 
Heartbeat CPU 0 instructions: 230000000 cycles: 592504827 heartbeat IPC: 0.256272 cumulative IPC: 0.311843 (Simulation time: 0 hr 44 min 5 sec) 
Heartbeat CPU 0 instructions: 240000002 cycles: 612775378 heartbeat IPC: 0.493327 cumulative IPC: 0.318 (Simulation time: 0 hr 45 min 55 sec) 
Heartbeat CPU 0 instructions: 250000001 cycles: 626889879 heartbeat IPC: 0.708491 cumulative IPC: 0.327012 (Simulation time: 0 hr 47 min 39 sec) 
Finished CPU 0 instructions: 200000002 cycles: 611597862 cumulative IPC: 0.327012 (Simulation time: 0 hr 47 min 39 sec) 
 Instruction ID: 250000030

ChampSim completed all CPUs

Region of Interest Statistics

CPU 0 cumulative IPC: 0.327012 instructions: 200000002 cycles: 611597862
ITLB SPEC fills:          0  NON-SPEC fills:          0
ITLB Test counter :          0
ITLB Leapfrog:          0
ITLB MSHR merge:          0
ITLB TOTAL     ACCESS:   33483988  HIT:   33483988  MISS:          0  HIT %:        100  MISS %:          0   MPKI: 0
ITLB LOAD TRANSLATION NON_SPEC    ACCESS:   33483988  HIT:   33483988  MISS:          0  HIT %:        100  MISS %:          0   MPKI: 0
ITLB PREFETCH  REQUESTED:          0  ISSUED:          0  USEFUL:          0  USELESS:          0
ITLB USEFUL LOAD PREFETCHES:          0 PREFETCH ISSUED TO LOWER LEVEL:          0  ACCURACY: -nan
ITLB TIMELY PREFETCHES:          0 LATE PREFETCHES: 0 DROPPED PREFETCHES: 0
ITLB COMMIT LATE PREFETCHES: 0 NORMAL LATE: 0 MISSED OPPORTUNITY: 0 UNCOVERED: 0
ITLB PREFETCHES SAME FILL-ORIGIN LEVEL: 0 DIFFERENT FILL-ORIGIN LEVEL: 0
ITLB AVERAGE MISS LATENCY: -nan cycles
ITLB AVERAGE MISS LATENCY LOAD: -nan cycles
ITLB AVERAGE MISS LATENCY PREFETCH: -nan cycles
ITLB AVERAGE MSHR OCCUPANCY: 0
ITLB MSHR FULL: 0
ITLB RQ	ACCESS:   42011159	FORWARD:          0	MERGED:    8527172	TO_CACHE:   33483987

DTLB SPEC fills:          0  NON-SPEC fills:          0
DTLB Test counter :          0
DTLB Leapfrog:          0
DTLB MSHR merge:          0
DTLB TOTAL     ACCESS:   43849862  HIT:   43659721  MISS:     190141  HIT %:    99.5664  MISS %:   0.433618   MPKI: 0.950705
DTLB LOAD TRANSLATION NON_SPEC    ACCESS:   43849862  HIT:   43659721  MISS:     190141  HIT %:    99.5664  MISS %:   0.433618   MPKI: 0.950705
DTLB PREFETCH  REQUESTED:          0  ISSUED:          0  USEFUL:          0  USELESS:          0
DTLB USEFUL LOAD PREFETCHES:          0 PREFETCH ISSUED TO LOWER LEVEL:          0  ACCURACY: -nan
DTLB TIMELY PREFETCHES:          0 LATE PREFETCHES: 0 DROPPED PREFETCHES: 0
DTLB COMMIT LATE PREFETCHES: 0 NORMAL LATE: 0 MISSED OPPORTUNITY: 0 UNCOVERED: 0
DTLB PREFETCHES SAME FILL-ORIGIN LEVEL: 0 DIFFERENT FILL-ORIGIN LEVEL: 0
DTLB AVERAGE MISS LATENCY: 83.8584 cycles
DTLB AVERAGE MISS LATENCY LOAD: -nan cycles
DTLB AVERAGE MISS LATENCY PREFETCH: -nan cycles
DTLB AVERAGE MSHR OCCUPANCY: 0.00803269
DTLB MSHR FULL: 0
DTLB RQ	ACCESS:   46758797	FORWARD:          0	MERGED:    2897536	TO_CACHE:   43861261

STLB SPEC fills:          0  NON-SPEC fills:          0
STLB Test counter :          0
STLB Leapfrog:          0
STLB MSHR merge:          0
STLB TOTAL     ACCESS:   21603581  HIT:   21435729  MISS:     167852  HIT %:     99.223  MISS %:   0.776964   MPKI: 0.83926
STLB LOAD TRANSLATION NON_SPEC    ACCESS:     190141  HIT:      88516  MISS:     101625  HIT %:    46.5528  MISS %:    53.4472   MPKI: 0.508125
STLB TRANSLATION FROM L1D PREFETCHER NON_SPEC    ACCESS:   21413440  HIT:   21347213  MISS:      66227  HIT %:    99.6907  MISS %:   0.309278   MPKI: 0.331135
STLB PREFETCH  REQUESTED:          0  ISSUED:          0  USEFUL:      65794  USELESS:        435
STLB USEFUL LOAD PREFETCHES:      65794 PREFETCH ISSUED TO LOWER LEVEL:          0  ACCURACY: inf
STLB TIMELY PREFETCHES:      65794 LATE PREFETCHES: 1333 DROPPED PREFETCHES: 24627
STLB COMMIT LATE PREFETCHES: 0 NORMAL LATE: 0 MISSED OPPORTUNITY: 0 UNCOVERED: 0
STLB PREFETCHES SAME FILL-ORIGIN LEVEL: 0 DIFFERENT FILL-ORIGIN LEVEL: 0
STLB AVERAGE MISS LATENCY: 120.331 cycles
STLB AVERAGE MISS LATENCY LOAD: -nan cycles
STLB AVERAGE MISS LATENCY PREFETCH: -nan cycles
STLB AVERAGE MSHR OCCUPANCY: 0.00728501
STLB MSHR FULL: 0
STLB RQ	ACCESS:   83144741	FORWARD:          0	MERGED:   61509914	TO_CACHE:   21634827

STLB Hit, L1D data hit: 0
STLB Hit, L2C data hit: 0
STLB Hit, LLC data hit: 0
STLB Hit, LLC data miss: 0
STLB STLB hints to L2: 0
L0D SPEC fills:   21548544  NON-SPEC fills:          0
L0D TimeGuard Request with older TS:      33110 Restricted eviction:       3653 read:        161
L0D Test counter :          0
L0D Leapfrog:          0
L0D MSHR merge:     256860
L0D TOTAL     ACCESS:   40959363  HIT:    3378369  MISS:   37580994  HIT %:     8.2481  MISS %:    91.7519   MPKI: 187.905
L0D LOAD      TOTAL       ACCESS:   40959363  HIT:    3378369  MISS:   37580994  HIT %:     8.2481  MISS %:    91.7519   MPKI: 187.905
L0D LOAD      NON_SPEC    ACCESS:   16029030  HIT:        233  MISS:   16028797  HIT %: 0.00145361  MISS %:    99.9985   MPKI: 80.144
L0D LOAD      SPEC        ACCESS:   24930333  HIT:    3378136  MISS:   21552197  HIT %:    13.5503  MISS %:    86.4497   MPKI: 107.761
L0D PREFETCH  REQUESTED:          0  ISSUED:          0  USEFUL:          0  USELESS:          0
L0D USEFUL LOAD PREFETCHES:          0 PREFETCH ISSUED TO LOWER LEVEL:          0  ACCURACY: -nan
L0D TIMELY PREFETCHES:          0 LATE PREFETCHES: 0 DROPPED PREFETCHES: 0
L0D COMMIT LATE PREFETCHES: 0 NORMAL LATE: 0 MISSED OPPORTUNITY: 0 UNCOVERED: 0
L0D PREFETCHES SAME FILL-ORIGIN LEVEL: 0 DIFFERENT FILL-ORIGIN LEVEL: 0
L0D AVERAGE MISS LATENCY: 9.27047 cycles
L0D AVERAGE MISS LATENCY LOAD: 9.27047 cycles
L0D AVERAGE MISS LATENCY PREFETCH: -nan cycles
L0D AVERAGE MSHR OCCUPANCY: 0.441566
L0D MSHR FULL: 0.00196078
L0D RQ	ACCESS:   49165291	FORWARD:          0	MERGED:    7949069	TO_CACHE:   41216222
L0D WQ	ACCESS:    5542575	FORWARD:          0	MERGED:          0	TO_CACHE:    5542575

L1D SPEC fills:          0  NON-SPEC fills:    1744098
L1D Test counter :    2985280
L1D Leapfrog:          0
L1D MSHR merge:       4512
L1D TOTAL     ACCESS:  119820651  HIT:  113292917  MISS:    6527734  HIT %:    94.5521  MISS %:    5.44792   MPKI: 32.6387
L1D LOAD      TOTAL       ACCESS:   37580941  HIT:   34591395  MISS:    2989546  HIT %:     92.045  MISS %:    7.95495   MPKI: 14.9477
L1D LOAD      NON_SPEC    ACCESS:   16028783  HIT:   14284685  MISS:    1744098  HIT %:     89.119  MISS %:     10.881   MPKI: 8.72049
L1D LOAD      SPEC        ACCESS:   21552158  HIT:   20306710  MISS:    1245448  HIT %:    94.2212  MISS %:    5.77876   MPKI: 6.22724
L1D RFO       NON_SPEC    ACCESS:    3675247  HIT:    3525182  MISS:     150065  HIT %:    95.9169  MISS %:    4.08313   MPKI: 0.750325
L1D PREFETCH  NON_SPEC    ACCESS:   46882363  HIT:   44740788  MISS:    2141575  HIT %:     95.432  MISS %:    4.56798   MPKI: 10.7079
L1D COMMIT LOAD NON_SPEC    ACCESS:   10146908  HIT:   10142866  MISS:       4042  HIT %:    99.9602  MISS %:  0.0398348   MPKI: 0.02021
L1D COMMIT WRITE NON_SPEC    ACCESS:   21535192  HIT:   20292686  MISS:    1242506  HIT %:    94.2303  MISS %:    5.76965   MPKI: 6.21253
L1D PREFETCH  REQUESTED:  114821106  ISSUED:  114638832  USEFUL:    2083347  USELESS:      58226
L1D USEFUL LOAD PREFETCHES:    2083347 PREFETCH ISSUED TO LOWER LEVEL:   37373415  ACCURACY: 5.57441
L1D TIMELY PREFETCHES:    2083347 LATE PREFETCHES: 4535 DROPPED PREFETCHES: 48977
L1D COMMIT LATE PREFETCHES: 30091 NORMAL LATE: 21284 MISSED OPPORTUNITY: 6600 UNCOVERED: 2931693
L1D PREFETCHES SAME FILL-ORIGIN LEVEL: 2146113 DIFFERENT FILL-ORIGIN LEVEL: 35227302
L1D AVERAGE MISS LATENCY: 45.6599 cycles
L1D AVERAGE MISS LATENCY LOAD: 52.6662 cycles
L1D AVERAGE MISS LATENCY PREFETCH: 49.7451 cycles
L1D AVERAGE MSHR OCCUPANCY: 0.321157
L1D MSHR FULL: 0.00245916
L1D RQ	ACCESS:   49181733	FORWARD:          0	MERGED:     818185	TO_CACHE:   47728019
L1D WQ	ACCESS:   27044308	FORWARD:     635529	MERGED:     579264	TO_CACHE:   26465044
L1D PQ	ACCESS:  114638832	FORWARD:          0	MERGED:   31684232	TO_CACHE:   82954600

L1D UNIQUE REGIONS ACCESSED: 0
L1D REGIONS CONFLICTS: 0
L1D Cross Page Prefetch Requests: 8075930
L1D Same Page Prefetch Requests: 122322536
L1D ROI Sum of L1D PQ occupancy: 1297293505
L1D PREFETCHES PUSHED FROM L2C: 0
L1I SPEC fills:          0  NON-SPEC fills:          0
L1I Test counter :          0
L1I Leapfrog:          0
L1I MSHR merge:          1
L1I TOTAL     ACCESS:   42011158  HIT:   42011143  MISS:         15  HIT %:        100  MISS %: 3.57048e-05   MPKI: 7.5e-05
L1I LOAD      TOTAL       ACCESS:   42011158  HIT:   42011143  MISS:         15  HIT %:        100  MISS %: 3.57048e-05   MPKI: 7.5e-05
L1I LOAD      NON_SPEC    ACCESS:   42011158  HIT:   42011143  MISS:         15  HIT %:        100  MISS %: 3.57048e-05   MPKI: 7.5e-05
L1I PREFETCH  REQUESTED:          0  ISSUED:          0  USEFUL:          0  USELESS:          0
L1I USEFUL LOAD PREFETCHES:          0 PREFETCH ISSUED TO LOWER LEVEL:          0  ACCURACY: -nan
L1I TIMELY PREFETCHES:          0 LATE PREFETCHES: 0 DROPPED PREFETCHES: 0
L1I COMMIT LATE PREFETCHES: 0 NORMAL LATE: 0 MISSED OPPORTUNITY: 0 UNCOVERED: 0
L1I PREFETCHES SAME FILL-ORIGIN LEVEL: 0 DIFFERENT FILL-ORIGIN LEVEL: 0
L1I AVERAGE MISS LATENCY: 257.867 cycles
L1I AVERAGE MISS LATENCY LOAD: 257.867 cycles
L1I AVERAGE MISS LATENCY PREFETCH: -nan cycles
L1I AVERAGE MSHR OCCUPANCY: 1.90426e-07
L1I MSHR FULL: 0
L1I RQ	ACCESS:   65236170	FORWARD:          0	MERGED:   23225011	TO_CACHE:   42011159

BTB SPEC fills:          0  NON-SPEC fills:          0
BTB Test counter :          0
BTB Leapfrog:          0
BTB MSHR merge:          0
BTB TOTAL     ACCESS:   42321273  HIT:   42320954  MISS:        319  HIT %:    99.9992  MISS %: 0.000753758   MPKI: 0.001595
BTB BRANCH_DIRECT_JUMP	ACCESS:       5431  HIT:       5387  MISS:         44
BTB BRANCH_INDIRECT	ACCESS:          2  HIT:          1  MISS:          1
BTB BRANCH_CONDITIONAL	ACCESS:   42315328  HIT:   42315225  MISS:        103
BTB BRANCH_DIRECT_CALL	ACCESS:        250  HIT:        208  MISS:         42
BTB BRANCH_INDIRECT_CALL	ACCESS:          6  HIT:          3  MISS:          3
BTB BRANCH_RETURN	ACCESS:        256  HIT:        130  MISS:        126
BTB BRANCH_OTHER ACCESS:          0  HIT:          0  MISS:          0

L2C SPEC fills:          0  NON-SPEC fills:     477260
L2C Test counter :          0
L2C Leapfrog:          0
L2C MSHR merge:      95764
L2C TOTAL     ACCESS:   38097398  HIT:   33091489  MISS:    5005909  HIT %:    86.8602  MISS %:    13.1398   MPKI: 25.0295
L2C LOAD      TOTAL       ACCESS:    2985014  HIT:    2091662  MISS:     893352  HIT %:    70.0721  MISS %:    29.9279   MPKI: 4.46676
L2C LOAD      NON_SPEC    ACCESS:    1740798  HIT:    1263523  MISS:     477275  HIT %:     72.583  MISS %:     27.417   MPKI: 2.38637
L2C LOAD      SPEC        ACCESS:    1244216  HIT:     828139  MISS:     416077  HIT %:    66.5591  MISS %:    33.4409   MPKI: 2.08038
L2C RFO       NON_SPEC    ACCESS:     150062  HIT:       8887  MISS:     141175  HIT %:    5.92222  MISS %:    94.0778   MPKI: 0.705875
L2C PREFETCH  NON_SPEC    ACCESS:   30536221  HIT:   27020273  MISS:    3515948  HIT %:     88.486  MISS %:     11.514   MPKI: 17.5797
L2C WRITEBACK NON_SPEC    ACCESS:     254656  HIT:     254649  MISS:          7  HIT %:    99.9973  MISS %: 0.00274881   MPKI: 3.5e-05
L2C CLEAN_EVICTION NON_SPEC    ACCESS:    3204360  HIT:    2784307  MISS:     420053  HIT %:    86.8912  MISS %:    13.1088   MPKI: 2.10026
L2C COMMIT LOAD NON_SPEC    ACCESS:       3956  HIT:       1491  MISS:       2465  HIT %:    37.6896  MISS %:    62.3104   MPKI: 0.012325
L2C LOAD TRANSLATION NON_SPEC    ACCESS:     502223  HIT:     478927  MISS:      23296  HIT %:    95.3614  MISS %:    4.63858   MPKI: 0.11648
L2C TRANSLATION FROM L1D PREFETCHER NON_SPEC    ACCESS:     460906  HIT:     451293  MISS:       9613  HIT %:    97.9143  MISS %:    2.08567   MPKI: 0.048065
L2C PREFETCH  REQUESTED:          0  ISSUED:          0  USEFUL:     409023  USELESS:    3112192
L2C USEFUL LOAD PREFETCHES:     409023 PREFETCH ISSUED TO LOWER LEVEL:    3611739  ACCURACY: 11.3248
L2C TIMELY PREFETCHES:     409023 LATE PREFETCHES: 95790 DROPPED PREFETCHES: 0
L2C COMMIT LATE PREFETCHES: 0 NORMAL LATE: 95891 MISSED OPPORTUNITY: 0 UNCOVERED: 797487
L2C PREFETCHES SAME FILL-ORIGIN LEVEL: 3261683 DIFFERENT FILL-ORIGIN LEVEL: 0
L2C AVERAGE MISS LATENCY: 166.079 cycles
L2C AVERAGE MISS LATENCY LOAD: 132.173 cycles
L2C AVERAGE MISS LATENCY PREFETCH: 191.891 cycles
L2C AVERAGE MSHR OCCUPANCY: 1.1832
L2C MSHR FULL: 0
L2C RQ	ACCESS:    4102259	FORWARD:          0	MERGED:          0	TO_CACHE:    4102161
L2C WQ	ACCESS:    3459016	FORWARD:         98	MERGED:          0	TO_CACHE:    3459016
L2C PQ	ACCESS:   37373415	FORWARD:          0	MERGED:        195	TO_CACHE:   37373220

L2C Instructions Evicting Data 15
L2C Translations Evicting Data 32435
L2C Data Evicting Data 4108438
L2C Instructions Evicting Instructions 0
L2C Translations Evicting Instructions 1
L2C Data Evicting Instructions 10
L2C Instructions Evicting Translations 0
L2C Translations Evicting Translations 473
L2C Data Evicting Translations 28400
L2C Dense regions hint from L2: 0
PSCL5 SPEC fills:          0  NON-SPEC fills:          0
PSCL5 Test counter :          0
PSCL5 Leapfrog:          0
PSCL5 MSHR merge:          0
PSCL5 TOTAL     ACCESS:          0  HIT:          0  MISS:          0  HIT %:       -nan  MISS %:       -nan   MPKI: 0
PSCL5 PREFETCH  REQUESTED:          0  ISSUED:          0  USEFUL:          0  USELESS:          0
PSCL5 USEFUL LOAD PREFETCHES:          0 PREFETCH ISSUED TO LOWER LEVEL:          0  ACCURACY: -nan
PSCL5 TIMELY PREFETCHES:          0 LATE PREFETCHES: 0 DROPPED PREFETCHES: 0
PSCL5 COMMIT LATE PREFETCHES: 0 NORMAL LATE: 0 MISSED OPPORTUNITY: 0 UNCOVERED: 0
PSCL5 PREFETCHES SAME FILL-ORIGIN LEVEL: 0 DIFFERENT FILL-ORIGIN LEVEL: 0

PSCL4 SPEC fills:          0  NON-SPEC fills:          0
PSCL4 Test counter :          0
PSCL4 Leapfrog:          0
PSCL4 MSHR merge:          0
PSCL4 TOTAL     ACCESS:          0  HIT:          0  MISS:          0  HIT %:       -nan  MISS %:       -nan   MPKI: 0
PSCL4 PREFETCH  REQUESTED:          0  ISSUED:          0  USEFUL:          0  USELESS:          0
PSCL4 USEFUL LOAD PREFETCHES:          0 PREFETCH ISSUED TO LOWER LEVEL:          0  ACCURACY: -nan
PSCL4 TIMELY PREFETCHES:          0 LATE PREFETCHES: 0 DROPPED PREFETCHES: 0
PSCL4 COMMIT LATE PREFETCHES: 0 NORMAL LATE: 0 MISSED OPPORTUNITY: 0 UNCOVERED: 0
PSCL4 PREFETCHES SAME FILL-ORIGIN LEVEL: 0 DIFFERENT FILL-ORIGIN LEVEL: 0

PSCL3 SPEC fills:          0  NON-SPEC fills:          0
PSCL3 Test counter :          0
PSCL3 Leapfrog:          0
PSCL3 MSHR merge:          0
PSCL3 TOTAL     ACCESS:          0  HIT:          0  MISS:          0  HIT %:       -nan  MISS %:       -nan   MPKI: 0
PSCL3 PREFETCH  REQUESTED:          0  ISSUED:          0  USEFUL:          0  USELESS:          0
PSCL3 USEFUL LOAD PREFETCHES:          0 PREFETCH ISSUED TO LOWER LEVEL:          0  ACCURACY: -nan
PSCL3 TIMELY PREFETCHES:          0 LATE PREFETCHES: 0 DROPPED PREFETCHES: 0
PSCL3 COMMIT LATE PREFETCHES: 0 NORMAL LATE: 0 MISSED OPPORTUNITY: 0 UNCOVERED: 0
PSCL3 PREFETCHES SAME FILL-ORIGIN LEVEL: 0 DIFFERENT FILL-ORIGIN LEVEL: 0

PSCL2 SPEC fills:          0  NON-SPEC fills:          0
PSCL2 Test counter :          0
PSCL2 Leapfrog:          0
PSCL2 MSHR merge:          0
PSCL2 TOTAL     ACCESS:          0  HIT:          0  MISS:          0  HIT %:       -nan  MISS %:       -nan   MPKI: 0
PSCL2 PREFETCH  REQUESTED:          0  ISSUED:          0  USEFUL:          0  USELESS:          0
PSCL2 USEFUL LOAD PREFETCHES:          0 PREFETCH ISSUED TO LOWER LEVEL:          0  ACCURACY: -nan
PSCL2 TIMELY PREFETCHES:          0 LATE PREFETCHES: 0 DROPPED PREFETCHES: 0
PSCL2 COMMIT LATE PREFETCHES: 0 NORMAL LATE: 0 MISSED OPPORTUNITY: 0 UNCOVERED: 0
PSCL2 PREFETCHES SAME FILL-ORIGIN LEVEL: 0 DIFFERENT FILL-ORIGIN LEVEL: 0

LLC SPEC fills:          0  NON-SPEC fills:     268069
LLC Test counter :          0
LLC Leapfrog:          0
LLC MSHR merge:          0
LLC TOTAL     ACCESS:    7195306  HIT:    2487755  MISS:    4707551  HIT %:    34.5747  MISS %:    65.4253   MPKI: 23.5378
LLC LOAD      TOTAL       ACCESS:     797586  HIT:     212684  MISS:     584902  HIT %:     26.666  MISS %:     73.334   MPKI: 2.92451
LLC LOAD      NON_SPEC    ACCESS:     413680  HIT:     145596  MISS:     268084  HIT %:    35.1953  MISS %:    64.8047   MPKI: 1.34042
LLC LOAD      SPEC        ACCESS:     383906  HIT:      67088  MISS:     316818  HIT %:    17.4751  MISS %:    82.5249   MPKI: 1.58409
LLC RFO       NON_SPEC    ACCESS:     141174  HIT:       2712  MISS:     138462  HIT %:    1.92103  MISS %:     98.079   MPKI: 0.69231
LLC PREFETCH  NON_SPEC    ACCESS:    3611738  HIT:       7464  MISS:    3604274  HIT %:    0.20666  MISS %:    99.7933   MPKI: 18.0214
LLC WRITEBACK NON_SPEC    ACCESS:     250128  HIT:     247043  MISS:       3085  HIT %:    98.7666  MISS %:    1.23337   MPKI: 0.015425
LLC CLEAN_EVICTION NON_SPEC    ACCESS:    2359331  HIT:    2016617  MISS:     342714  HIT %:    85.4741  MISS %:    14.5259   MPKI: 1.71357
LLC COMMIT LOAD NON_SPEC    ACCESS:       2440  HIT:        416  MISS:       2024  HIT %:    17.0492  MISS %:    82.9508   MPKI: 0.01012
LLC LOAD TRANSLATION NON_SPEC    ACCESS:      23296  HIT:        539  MISS:      22757  HIT %:     2.3137  MISS %:    97.6863   MPKI: 0.113785
LLC TRANSLATION FROM L1D PREFETCHER NON_SPEC    ACCESS:       9613  HIT:        280  MISS:       9333  HIT %:    2.91272  MISS %:    97.0873   MPKI: 0.046665
LLC PREFETCH  REQUESTED:          0  ISSUED:          0  USEFUL:       3100  USELESS:    3605985
LLC USEFUL LOAD PREFETCHES:       3100 PREFETCH ISSUED TO LOWER LEVEL:    3604275  ACCURACY: 0.086009
LLC TIMELY PREFETCHES:       3100 LATE PREFETCHES: 0 DROPPED PREFETCHES: 0
LLC COMMIT LATE PREFETCHES: 0 NORMAL LATE: 0 MISSED OPPORTUNITY: 0 UNCOVERED: 0
LLC PREFETCHES SAME FILL-ORIGIN LEVEL: 0 DIFFERENT FILL-ORIGIN LEVEL: 0
LLC AVERAGE MISS LATENCY: 150.231 cycles
LLC AVERAGE MISS LATENCY LOAD: 152.214 cycles
LLC AVERAGE MISS LATENCY PREFETCH: 162.271 cycles
LLC AVERAGE MSHR OCCUPANCY: 1.00146
LLC MSHR FULL: 0
LLC RQ	ACCESS:     974111	FORWARD:          0	MERGED:          0	TO_CACHE:     974109
LLC WQ	ACCESS:    2609459	FORWARD:          2	MERGED:          0	TO_CACHE:    2609459
LLC PQ	ACCESS:    3611739	FORWARD:          0	MERGED:          0	TO_CACHE:    3611739

LLC Dense regions hint to LLC: 0

RAW hits: 16211
Loads Generated: 49181502
Loads sent to L1D: 49165291
Stores Generated: 5542573
Stores sent to L1D: 5542575
Major fault: 0 Minor fault: 27212
Allocated PAGES: 27212
Total Load insts: 61472409
Total Non-spec loads: 16249204
Percentage of speculative loads: 73.5667

LeapFrogging counter: 17898
Commit hits: 21535489 miss: 11600741
Commit hit %: 64.9908 miss %: 35.0092
Commits not translated: 0
Loads retired: 2989546
Stores retired: 5542575
Cache fills: 2989546
L1D response latency: 52.6662 cycles
Load retirement latency: 71.4022 cycles
OOO test counter: 0
Discarded buffer inserts: 21535489 hits: 3452 hit %: 0.0160294
Filter prediction accuracy: -nan
ALL MISSES SIZE: 1455
LATENCY_FILL: 52.5568 2987153
LATENCY_FILL_ROB: 60.8312 2989979
test counter pref: 45939640
Max ROB Extended: 17
test counter pref: 66025256

DRAM Statistics
 CHANNEL 0
 RQ ROW_BUFFER_HIT:     847793  ROW_BUFFER_MISS:    3513950
 DBUS_CONGESTED:       8632
 WQ ROW_BUFFER_HIT:    1074089  ROW_BUFFER_MISS:    1443748  FULL:       7991

 AVG_CONGESTED_CYCLE: 4
 All warmup complete: 2
Channel 0 Bank busy for read cycles: 0
Channel 0 Bank busy for write cycles: 0
Channel 0
Rank 0
0banks busy for read cycles: 84854983
0banks busy for write cycles: 226323
1banks busy for read cycles: 232696274
1banks busy for write cycles: 33102768
2banks busy for read cycles: 105562226
2banks busy for write cycles: 25172740
3banks busy for read cycles: 24881232
3banks busy for write cycles: 18303040
4banks busy for read cycles: 6148684
4banks busy for write cycles: 12472367
5banks busy for read cycles: 2505115
5banks busy for write cycles: 8793628
6banks busy for read cycles: 1197519
6banks busy for write cycles: 6991683
7banks busy for read cycles: 599795
7banks busy for write cycles: 8909978
8banks busy for read cycles: 369114
8banks busy for write cycles: 38810394

CPU 0 Branch Prediction Accuracy: 85.7266% MPKI: 31.0332 Average ROB Occupancy at Mispredict: 6.71226
Branch types
NOT_BRANCH: 156515655 78.2578%
BRANCH_DIRECT_JUMP: 5431 0.0027155%
BRANCH_INDIRECT: 2 1e-06%
BRANCH_CONDITIONAL: 43478066 21.739%
BRANCH_DIRECT_CALL: 250 0.000125%
BRANCH_INDIRECT_CALL: 6 3e-06%
BRANCH_RETURN: 256 0.000128%
BRANCH_OTHER: 0 0%

DRAM PAGES: 1048576
Allocated PAGES: 27212
