
*** ChampSim Multicore Out-of-Order Simulator ***

Warmup Instructions: 50000000
Simulation Instructions: 200000000
Number of CPUs: 1
LLC sets: 2048
LLC ways: 16
L0D sets: 16
L0D ways: 2
ROB size: 352
LQ size: 128
SQ size: 72
Secure Berti: ON
Berti: ON
Berti Fill: ON
On commit prefetching: OFF
Hit-based filter: OFF
Time-guarding: ON
Free-slotting: ON
Leap-frogging: ON
Train prefetcher on L0D bypass: OFF
No translation penalty for prefetchers: OFF
Prefetch to L0D only: OFF
Prefetch to L1D only: OFF
Clean evictions: ON
Commit loads: ON
Commit write: ON
Fill commit loads to L2C, LLC: ON
DRAM IO FREQUENCY: 6400
ROB SIZE: 352
Off-chip DRAM Size: 4096 MB Channels: 1 Width: 64-bit Data Rate: 6400 MT/s
CPU 0 runs /home/sumon/secure_berti/GhostMinion/../../traces/gap/cc-5.trace.gz
.gz
BTB has LRU replacement policy
ITLB has LRU replacement policy
DTLB has LRU replacement policy
STLB has LRU replacement policy
L1I has LRU replacement policy
L0D has LRU replacement policy
Berti version on_commit
History Sets: 8
History Ways: 16
BERTI Size: 16
BERTI Stride Size: 16
History Sets: 8
History Ways: 16
BERTI Size: 16
BERTI Stride Size: 16
L1D has LRU replacement policy
L2C has LRU replacement policy
LLC has LRU replacement policy
Heartbeat CPU 0 instructions: 10000001 cycles: 3241332 heartbeat IPC: 3.08515 cumulative IPC: 3.08515 (Simulation time: 0 hr 1 min 35 sec) 
Heartbeat CPU 0 instructions: 20000001 cycles: 6474569 heartbeat IPC: 3.09288 cumulative IPC: 3.08901 (Simulation time: 0 hr 3 min 24 sec) 
Heartbeat CPU 0 instructions: 30000002 cycles: 9714125 heartbeat IPC: 3.08684 cumulative IPC: 3.08829 (Simulation time: 0 hr 5 min 13 sec) 
Heartbeat CPU 0 instructions: 40000001 cycles: 12950757 heartbeat IPC: 3.08963 cumulative IPC: 3.08862 (Simulation time: 0 hr 7 min 3 sec) 
Heartbeat CPU 0 instructions: 50000001 cycles: 16184874 heartbeat IPC: 3.09203 cumulative IPC: 3.0893 (Simulation time: 0 hr 8 min 53 sec) 

Warmup complete CPU 0 instructions: 50000001 cycles: 16184874 (Simulation time: 0 hr 8 min 53 sec) 

Heartbeat CPU 0 instructions: 60000001 cycles: 50960790 heartbeat IPC: 0.287555 cumulative IPC: 0.287555 (Simulation time: 0 hr 11 min 21 sec) 
Heartbeat CPU 0 instructions: 70000002 cycles: 85276534 heartbeat IPC: 0.291411 cumulative IPC: 0.289471 (Simulation time: 0 hr 13 min 52 sec) 
Heartbeat CPU 0 instructions: 80000000 cycles: 119420737 heartbeat IPC: 0.292875 cumulative IPC: 0.290597 (Simulation time: 0 hr 16 min 20 sec) 
Heartbeat CPU 0 instructions: 90000000 cycles: 153573028 heartbeat IPC: 0.292806 cumulative IPC: 0.291146 (Simulation time: 0 hr 18 min 49 sec) 
Heartbeat CPU 0 instructions: 100000000 cycles: 188004543 heartbeat IPC: 0.290432 cumulative IPC: 0.291003 (Simulation time: 0 hr 21 min 21 sec) 
Heartbeat CPU 0 instructions: 110000000 cycles: 221428338 heartbeat IPC: 0.299188 cumulative IPC: 0.292336 (Simulation time: 0 hr 23 min 52 sec) 
Heartbeat CPU 0 instructions: 120000000 cycles: 255358076 heartbeat IPC: 0.294727 cumulative IPC: 0.292675 (Simulation time: 0 hr 26 min 22 sec) 
Heartbeat CPU 0 instructions: 130000003 cycles: 287393293 heartbeat IPC: 0.312157 cumulative IPC: 0.294976 (Simulation time: 0 hr 28 min 53 sec) 
Heartbeat CPU 0 instructions: 140000001 cycles: 320539974 heartbeat IPC: 0.301689 cumulative IPC: 0.295707 (Simulation time: 0 hr 31 min 23 sec) 
Heartbeat CPU 0 instructions: 150000000 cycles: 353123064 heartbeat IPC: 0.306908 cumulative IPC: 0.29679 (Simulation time: 0 hr 33 min 54 sec) 
Heartbeat CPU 0 instructions: 160000000 cycles: 386227983 heartbeat IPC: 0.30207 cumulative IPC: 0.297263 (Simulation time: 0 hr 36 min 24 sec) 
Heartbeat CPU 0 instructions: 170000001 cycles: 419975921 heartbeat IPC: 0.296314 cumulative IPC: 0.297183 (Simulation time: 0 hr 38 min 57 sec) 
Heartbeat CPU 0 instructions: 180000001 cycles: 453197919 heartbeat IPC: 0.301005 cumulative IPC: 0.297474 (Simulation time: 0 hr 41 min 27 sec) 
Heartbeat CPU 0 instructions: 190000001 cycles: 486960657 heartbeat IPC: 0.296185 cumulative IPC: 0.297381 (Simulation time: 0 hr 44 min 0 sec) 
Heartbeat CPU 0 instructions: 200000000 cycles: 519573371 heartbeat IPC: 0.306629 cumulative IPC: 0.297981 (Simulation time: 0 hr 46 min 31 sec) 
Heartbeat CPU 0 instructions: 210000001 cycles: 553249262 heartbeat IPC: 0.296948 cumulative IPC: 0.297916 (Simulation time: 0 hr 49 min 4 sec) 
Heartbeat CPU 0 instructions: 220000000 cycles: 585981261 heartbeat IPC: 0.305511 cumulative IPC: 0.298352 (Simulation time: 0 hr 51 min 37 sec) 
Heartbeat CPU 0 instructions: 230000001 cycles: 618704989 heartbeat IPC: 0.305589 cumulative IPC: 0.298745 (Simulation time: 0 hr 54 min 8 sec) 
Heartbeat CPU 0 instructions: 240000003 cycles: 650802051 heartbeat IPC: 0.311555 cumulative IPC: 0.299393 (Simulation time: 0 hr 56 min 39 sec) 
Heartbeat CPU 0 instructions: 250000002 cycles: 682588001 heartbeat IPC: 0.314604 cumulative IPC: 0.300119 (Simulation time: 0 hr 59 min 10 sec) 
Finished CPU 0 instructions: 200000001 cycles: 666403127 cumulative IPC: 0.300119 (Simulation time: 0 hr 59 min 10 sec) 
 Instruction ID: 250000027

ChampSim completed all CPUs

Region of Interest Statistics

CPU 0 cumulative IPC: 0.300119 instructions: 200000001 cycles: 666403127
ITLB SPEC fills:          0  NON-SPEC fills:          0
ITLB Test counter :          0
ITLB Leapfrog:          0
ITLB MSHR merge:          0
ITLB TOTAL     ACCESS:   29815491  HIT:   29815491  MISS:          0  HIT %:        100  MISS %:          0   MPKI: 0
ITLB LOAD TRANSLATION NON_SPEC    ACCESS:   29815491  HIT:   29815491  MISS:          0  HIT %:        100  MISS %:          0   MPKI: 0
ITLB PREFETCH  REQUESTED:          0  ISSUED:          0  USEFUL:          0  USELESS:          0
ITLB USEFUL LOAD PREFETCHES:          0 PREFETCH ISSUED TO LOWER LEVEL:          0  ACCURACY: -nan
ITLB TIMELY PREFETCHES:          0 LATE PREFETCHES: 0 DROPPED PREFETCHES: 0
ITLB COMMIT LATE PREFETCHES: 0 NORMAL LATE: 0 MISSED OPPORTUNITY: 0 UNCOVERED: 0
ITLB PREFETCHES SAME FILL-ORIGIN LEVEL: 0 DIFFERENT FILL-ORIGIN LEVEL: 0
ITLB AVERAGE MISS LATENCY: -nan cycles
ITLB AVERAGE MISS LATENCY LOAD: -nan cycles
ITLB AVERAGE MISS LATENCY PREFETCH: -nan cycles
ITLB AVERAGE MSHR OCCUPANCY: 0
ITLB MSHR FULL: 0
ITLB RQ	ACCESS:   30423069	FORWARD:          0	MERGED:     607578	TO_CACHE:   29815491

DTLB SPEC fills:          0  NON-SPEC fills:          0
DTLB Test counter :          0
DTLB Leapfrog:          0
DTLB MSHR merge:          0
DTLB TOTAL     ACCESS:   46090590  HIT:   36611846  MISS:    9478744  HIT %:    79.4345  MISS %:    20.5655   MPKI: 47.3937
DTLB LOAD TRANSLATION NON_SPEC    ACCESS:   46090590  HIT:   36611846  MISS:    9478744  HIT %:    79.4345  MISS %:    20.5655   MPKI: 47.3937
DTLB PREFETCH  REQUESTED:          0  ISSUED:          0  USEFUL:          0  USELESS:          0
DTLB USEFUL LOAD PREFETCHES:          0 PREFETCH ISSUED TO LOWER LEVEL:          0  ACCURACY: -nan
DTLB TIMELY PREFETCHES:          0 LATE PREFETCHES: 0 DROPPED PREFETCHES: 0
DTLB COMMIT LATE PREFETCHES: 0 NORMAL LATE: 0 MISSED OPPORTUNITY: 0 UNCOVERED: 0
DTLB PREFETCHES SAME FILL-ORIGIN LEVEL: 0 DIFFERENT FILL-ORIGIN LEVEL: 0
DTLB AVERAGE MISS LATENCY: 9.56606 cycles
DTLB AVERAGE MISS LATENCY LOAD: -nan cycles
DTLB AVERAGE MISS LATENCY PREFETCH: -nan cycles
DTLB AVERAGE MSHR OCCUPANCY: 0.415061
DTLB MSHR FULL: 0.00418198
DTLB RQ	ACCESS:   48364144	FORWARD:          0	MERGED:    1892382	TO_CACHE:   46471762

STLB SPEC fills:          0  NON-SPEC fills:          0
STLB Test counter :          0
STLB Leapfrog:          0
STLB MSHR merge:          0
STLB TOTAL     ACCESS:   24431002  HIT:   24416719  MISS:      14283  HIT %:    99.9415  MISS %:  0.0584626   MPKI: 0.071415
STLB LOAD TRANSLATION NON_SPEC    ACCESS:    9478744  HIT:    9464475  MISS:      14269  HIT %:    99.8495  MISS %:   0.150537   MPKI: 0.071345
STLB TRANSLATION FROM L1D PREFETCHER NON_SPEC    ACCESS:   14952258  HIT:   14952244  MISS:         14  HIT %:    99.9999  MISS %: 9.36313e-05   MPKI: 7e-05
STLB PREFETCH  REQUESTED:          0  ISSUED:          0  USEFUL:         10  USELESS:          4
STLB USEFUL LOAD PREFETCHES:         10 PREFETCH ISSUED TO LOWER LEVEL:          0  ACCURACY: inf
STLB TIMELY PREFETCHES:         10 LATE PREFETCHES: 8138 DROPPED PREFETCHES: 948648
STLB COMMIT LATE PREFETCHES: 0 NORMAL LATE: 0 MISSED OPPORTUNITY: 0 UNCOVERED: 0
STLB PREFETCHES SAME FILL-ORIGIN LEVEL: 0 DIFFERENT FILL-ORIGIN LEVEL: 0
STLB AVERAGE MISS LATENCY: 176.483 cycles
STLB AVERAGE MISS LATENCY LOAD: -nan cycles
STLB AVERAGE MISS LATENCY PREFETCH: -nan cycles
STLB AVERAGE MSHR OCCUPANCY: 0.133684
STLB MSHR FULL: 0
STLB RQ	ACCESS:   83509264	FORWARD:          0	MERGED:   58033772	TO_CACHE:   25475492

STLB Hit, L1D data hit: 0
STLB Hit, L2C data hit: 0
STLB Hit, LLC data hit: 0
STLB Hit, LLC data miss: 0
STLB STLB hints to L2: 0
L0D SPEC fills:   24887487  NON-SPEC fills:          0
L0D TimeGuard Request with older TS:     742164 Restricted eviction:     326632 read:     640264
L0D Test counter :          0
L0D Leapfrog:          0
L0D MSHR merge:     972121
L0D TOTAL     ACCESS:   47143748  HIT:   13316082  MISS:   33827666  HIT %:    28.2457  MISS %:    71.7543   MPKI: 169.138
L0D LOAD      TOTAL       ACCESS:   47143748  HIT:   13316082  MISS:   33827666  HIT %:    28.2457  MISS %:    71.7543   MPKI: 169.138
L0D LOAD      NON_SPEC    ACCESS:    9515890  HIT:     902343  MISS:    8613547  HIT %:    9.48249  MISS %:    90.5175   MPKI: 43.0677
L0D LOAD      SPEC        ACCESS:   37627858  HIT:   12413739  MISS:   25214119  HIT %:    32.9908  MISS %:    67.0092   MPKI: 126.071
L0D PREFETCH  REQUESTED:          0  ISSUED:          0  USEFUL:          0  USELESS:          0
L0D USEFUL LOAD PREFETCHES:          0 PREFETCH ISSUED TO LOWER LEVEL:          0  ACCURACY: -nan
L0D TIMELY PREFETCHES:          0 LATE PREFETCHES: 0 DROPPED PREFETCHES: 0
L0D COMMIT LATE PREFETCHES: 0 NORMAL LATE: 0 MISSED OPPORTUNITY: 0 UNCOVERED: 0
L0D PREFETCHES SAME FILL-ORIGIN LEVEL: 0 DIFFERENT FILL-ORIGIN LEVEL: 0
L0D AVERAGE MISS LATENCY: 32.3466 cycles
L0D AVERAGE MISS LATENCY LOAD: 32.3466 cycles
L0D AVERAGE MISS LATENCY PREFETCH: -nan cycles
L0D AVERAGE MSHR OCCUPANCY: 2.22472
L0D MSHR FULL: 0.0474463
L0D RQ	ACCESS:   54337458	FORWARD:          0	MERGED:    6221596	TO_CACHE:   48115862
L0D WQ	ACCESS:     248282	FORWARD:          0	MERGED:          0	TO_CACHE:     248282

L1D SPEC fills:          0  NON-SPEC fills:    2653575
L1D Test counter :   13670217
L1D Leapfrog:          0
L1D MSHR merge:      19058
L1D TOTAL     ACCESS:  121588370  HIT:   95869809  MISS:   25718561  HIT %:    78.8478  MISS %:    21.1522   MPKI: 128.593
L1D LOAD      TOTAL       ACCESS:   33827165  HIT:   20116965  MISS:   13710200  HIT %:    59.4699  MISS %:    40.5301   MPKI: 68.551
L1D LOAD      NON_SPEC    ACCESS:    8613083  HIT:    5959508  MISS:    2653575  HIT %:    69.1913  MISS %:    30.8087   MPKI: 13.2679
L1D LOAD      SPEC        ACCESS:   25214082  HIT:   14157457  MISS:   11056625  HIT %:     56.149  MISS %:     43.851   MPKI: 55.2831
L1D RFO       NON_SPEC    ACCESS:     246818  HIT:     246818  MISS:          0  HIT %:        100  MISS %:          0   MPKI: 0
L1D PREFETCH  NON_SPEC    ACCESS:   50640078  HIT:   49682689  MISS:     957389  HIT %:    98.1094  MISS %:    1.89058   MPKI: 4.78694
L1D COMMIT LOAD NON_SPEC    ACCESS:   12811643  HIT:   12535577  MISS:     276066  HIT %:    97.8452  MISS %:    2.15481   MPKI: 1.38033
L1D COMMIT WRITE NON_SPEC    ACCESS:   24062666  HIT:   13287760  MISS:   10774906  HIT %:    55.2215  MISS %:    44.7785   MPKI: 53.8745
L1D PREFETCH  REQUESTED:  142532948  ISSUED:  140672178  USEFUL:     935719  USELESS:      21671
L1D USEFUL LOAD PREFETCHES:     935719 PREFETCH ISSUED TO LOWER LEVEL:   20976172  ACCURACY: 4.46087
L1D TIMELY PREFETCHES:     935719 LATE PREFETCHES: 18574 DROPPED PREFETCHES: 2950703
L1D COMMIT LATE PREFETCHES: 24223 NORMAL LATE: 31127 MISSED OPPORTUNITY: 21059 UNCOVERED: 13634835
L1D PREFETCHES SAME FILL-ORIGIN LEVEL: 975963 DIFFERENT FILL-ORIGIN LEVEL: 20000209
L1D AVERAGE MISS LATENCY: 38.4274 cycles
L1D AVERAGE MISS LATENCY LOAD: 67.1696 cycles
L1D AVERAGE MISS LATENCY PREFETCH: 58.6229 cycles
L1D AVERAGE MSHR OCCUPANCY: 1.42531
L1D MSHR FULL: 1.69379e-06
L1D RQ	ACCESS:   54227924	FORWARD:          0	MERGED:    5623203	TO_CACHE:   46640765
L1D WQ	ACCESS:   24535698	FORWARD:    1963956	MERGED:     224755	TO_CACHE:   24310943
L1D PQ	ACCESS:  140672178	FORWARD:          0	MERGED:   66641658	TO_CACHE:   74030520

L1D UNIQUE REGIONS ACCESSED: 0
L1D REGIONS CONFLICTS: 0
L1D Cross Page Prefetch Requests: 12956462
L1D Same Page Prefetch Requests: 160518214
L1D ROI Sum of L1D PQ occupancy: 1604563070
L1D PREFETCHES PUSHED FROM L2C: 0
L1I SPEC fills:          0  NON-SPEC fills:          0
L1I Test counter :          0
L1I Leapfrog:          0
L1I MSHR merge:          0
L1I TOTAL     ACCESS:   30423069  HIT:   30423069  MISS:          0  HIT %:        100  MISS %:          0   MPKI: 0
L1I LOAD      TOTAL       ACCESS:   30423069  HIT:   30423069  MISS:          0  HIT %:        100  MISS %:          0   MPKI: 0
L1I LOAD      NON_SPEC    ACCESS:   30423069  HIT:   30423069  MISS:          0  HIT %:        100  MISS %:          0   MPKI: 0
L1I PREFETCH  REQUESTED:          0  ISSUED:          0  USEFUL:          0  USELESS:          0
L1I USEFUL LOAD PREFETCHES:          0 PREFETCH ISSUED TO LOWER LEVEL:          0  ACCURACY: -nan
L1I TIMELY PREFETCHES:          0 LATE PREFETCHES: 0 DROPPED PREFETCHES: 0
L1I COMMIT LATE PREFETCHES: 0 NORMAL LATE: 0 MISSED OPPORTUNITY: 0 UNCOVERED: 0
L1I PREFETCHES SAME FILL-ORIGIN LEVEL: 0 DIFFERENT FILL-ORIGIN LEVEL: 0
L1I AVERAGE MISS LATENCY: -nan cycles
L1I AVERAGE MISS LATENCY LOAD: -nan cycles
L1I AVERAGE MISS LATENCY PREFETCH: -nan cycles
L1I AVERAGE MSHR OCCUPANCY: 0
L1I MSHR FULL: 0
L1I RQ	ACCESS:   55272353	FORWARD:          0	MERGED:   24849284	TO_CACHE:   30423069

BTB SPEC fills:          0  NON-SPEC fills:          0
BTB Test counter :          0
BTB Leapfrog:          0
BTB MSHR merge:          0
BTB TOTAL     ACCESS:   40039424  HIT:   40039419  MISS:          5  HIT %:        100  MISS %: 1.24877e-05   MPKI: 2.5e-05
BTB BRANCH_DIRECT_JUMP	ACCESS:          0  HIT:          0  MISS:          0
BTB BRANCH_INDIRECT	ACCESS:          0  HIT:          0  MISS:          0
BTB BRANCH_CONDITIONAL	ACCESS:   40039424  HIT:   40039419  MISS:          5
BTB BRANCH_DIRECT_CALL	ACCESS:          0  HIT:          0  MISS:          0
BTB BRANCH_INDIRECT_CALL	ACCESS:          0  HIT:          0  MISS:          0
BTB BRANCH_RETURN	ACCESS:          0  HIT:          0  MISS:          0
BTB BRANCH_OTHER ACCESS:          0  HIT:          0  MISS:          0

L2C SPEC fills:          0  NON-SPEC fills:    1650619
L2C Test counter :          0
L2C Leapfrog:          0
L2C MSHR merge:      51155
L2C TOTAL     ACCESS:   49995248  HIT:   31768873  MISS:   18226375  HIT %:    63.5438  MISS %:    36.4562   MPKI: 91.1319
L2C LOAD      TOTAL       ACCESS:   13691369  HIT:    4662699  MISS:    9028670  HIT %:    34.0558  MISS %:    65.9442   MPKI: 45.1433
L2C LOAD      NON_SPEC    ACCESS:    2652195  HIT:    1001576  MISS:    1650619  HIT %:     37.764  MISS %:     62.236   MPKI: 8.25309
L2C LOAD      SPEC        ACCESS:   11039174  HIT:    3661123  MISS:    7378051  HIT %:    33.1648  MISS %:    66.8352   MPKI: 36.8903
L2C PREFETCH  NON_SPEC    ACCESS:   19272413  HIT:   17603432  MISS:    1668981  HIT %:    91.3401  MISS %:    8.65995   MPKI: 8.3449
L2C WRITEBACK NON_SPEC    ACCESS:      29665  HIT:      29663  MISS:          2  HIT %:    99.9933  MISS %: 0.00674195   MPKI: 1e-05
L2C CLEAN_EVICTION NON_SPEC    ACCESS:   11872420  HIT:    4503270  MISS:    7369150  HIT %:    37.9305  MISS %:    62.0695   MPKI: 36.8457
L2C COMMIT LOAD NON_SPEC    ACCESS:     275855  HIT:     121330  MISS:     154525  HIT %:    43.9833  MISS %:    56.0167   MPKI: 0.772625
L2C LOAD TRANSLATION NON_SPEC    ACCESS:      71318  HIT:      71318  MISS:          0  HIT %:        100  MISS %:          0   MPKI: 0
L2C TRANSLATION FROM L1D PREFETCHER NON_SPEC    ACCESS:    4782208  HIT:    4777161  MISS:       5047  HIT %:    99.8945  MISS %:   0.105537   MPKI: 0.025235
L2C PREFETCH  REQUESTED:          0  ISSUED:          0  USEFUL:     110022  USELESS:    1563241
L2C USEFUL LOAD PREFETCHES:     110022 PREFETCH ISSUED TO LOWER LEVEL:    1720653  ACCURACY: 6.3942
L2C TIMELY PREFETCHES:     110022 LATE PREFETCHES: 51672 DROPPED PREFETCHES: 0
L2C COMMIT LATE PREFETCHES: 0 NORMAL LATE: 52101 MISSED OPPORTUNITY: 0 UNCOVERED: 8977085
L2C PREFETCHES SAME FILL-ORIGIN LEVEL: 1516699 DIFFERENT FILL-ORIGIN LEVEL: 0
L2C AVERAGE MISS LATENCY: 61.0069 cycles
L2C AVERAGE MISS LATENCY LOAD: 83.4549 cycles
L2C AVERAGE MISS LATENCY PREFETCH: 210.187 cycles
L2C AVERAGE MSHR OCCUPANCY: 1.77488
L2C MSHR FULL: 7.33228e-06
L2C RQ	ACCESS:   18821217	FORWARD:          0	MERGED:          0	TO_CACHE:   18820750
L2C WQ	ACCESS:   11902088	FORWARD:        467	MERGED:          0	TO_CACHE:   11902088
L2C PQ	ACCESS:   20976172	FORWARD:          0	MERGED:       2596	TO_CACHE:   20973576

L2C Instructions Evicting Data 0
L2C Translations Evicting Data 5044
L2C Data Evicting Data 3472632
L2C Instructions Evicting Instructions 0
L2C Translations Evicting Instructions 0
L2C Data Evicting Instructions 0
L2C Instructions Evicting Translations 0
L2C Translations Evicting Translations 3
L2C Data Evicting Translations 1493
L2C Dense regions hint from L2: 0
PSCL5 SPEC fills:          0  NON-SPEC fills:          0
PSCL5 Test counter :          0
PSCL5 Leapfrog:          0
PSCL5 MSHR merge:          0
PSCL5 TOTAL     ACCESS:          0  HIT:          0  MISS:          0  HIT %:       -nan  MISS %:       -nan   MPKI: 0
PSCL5 PREFETCH  REQUESTED:          0  ISSUED:          0  USEFUL:          0  USELESS:          0
PSCL5 USEFUL LOAD PREFETCHES:          0 PREFETCH ISSUED TO LOWER LEVEL:          0  ACCURACY: -nan
PSCL5 TIMELY PREFETCHES:          0 LATE PREFETCHES: 0 DROPPED PREFETCHES: 0
PSCL5 COMMIT LATE PREFETCHES: 0 NORMAL LATE: 0 MISSED OPPORTUNITY: 0 UNCOVERED: 0
PSCL5 PREFETCHES SAME FILL-ORIGIN LEVEL: 0 DIFFERENT FILL-ORIGIN LEVEL: 0

PSCL4 SPEC fills:          0  NON-SPEC fills:          0
PSCL4 Test counter :          0
PSCL4 Leapfrog:          0
PSCL4 MSHR merge:          0
PSCL4 TOTAL     ACCESS:          0  HIT:          0  MISS:          0  HIT %:       -nan  MISS %:       -nan   MPKI: 0
PSCL4 PREFETCH  REQUESTED:          0  ISSUED:          0  USEFUL:          0  USELESS:          0
PSCL4 USEFUL LOAD PREFETCHES:          0 PREFETCH ISSUED TO LOWER LEVEL:          0  ACCURACY: -nan
PSCL4 TIMELY PREFETCHES:          0 LATE PREFETCHES: 0 DROPPED PREFETCHES: 0
PSCL4 COMMIT LATE PREFETCHES: 0 NORMAL LATE: 0 MISSED OPPORTUNITY: 0 UNCOVERED: 0
PSCL4 PREFETCHES SAME FILL-ORIGIN LEVEL: 0 DIFFERENT FILL-ORIGIN LEVEL: 0

PSCL3 SPEC fills:          0  NON-SPEC fills:          0
PSCL3 Test counter :          0
PSCL3 Leapfrog:          0
PSCL3 MSHR merge:          0
PSCL3 TOTAL     ACCESS:          0  HIT:          0  MISS:          0  HIT %:       -nan  MISS %:       -nan   MPKI: 0
PSCL3 PREFETCH  REQUESTED:          0  ISSUED:          0  USEFUL:          0  USELESS:          0
PSCL3 USEFUL LOAD PREFETCHES:          0 PREFETCH ISSUED TO LOWER LEVEL:          0  ACCURACY: -nan
PSCL3 TIMELY PREFETCHES:          0 LATE PREFETCHES: 0 DROPPED PREFETCHES: 0
PSCL3 COMMIT LATE PREFETCHES: 0 NORMAL LATE: 0 MISSED OPPORTUNITY: 0 UNCOVERED: 0
PSCL3 PREFETCHES SAME FILL-ORIGIN LEVEL: 0 DIFFERENT FILL-ORIGIN LEVEL: 0

PSCL2 SPEC fills:          0  NON-SPEC fills:          0
PSCL2 Test counter :          0
PSCL2 Leapfrog:          0
PSCL2 MSHR merge:          0
PSCL2 TOTAL     ACCESS:          0  HIT:          0  MISS:          0  HIT %:       -nan  MISS %:       -nan   MPKI: 0
PSCL2 PREFETCH  REQUESTED:          0  ISSUED:          0  USEFUL:          0  USELESS:          0
PSCL2 USEFUL LOAD PREFETCHES:          0 PREFETCH ISSUED TO LOWER LEVEL:          0  ACCURACY: -nan
PSCL2 TIMELY PREFETCHES:          0 LATE PREFETCHES: 0 DROPPED PREFETCHES: 0
PSCL2 COMMIT LATE PREFETCHES: 0 NORMAL LATE: 0 MISSED OPPORTUNITY: 0 UNCOVERED: 0
PSCL2 PREFETCHES SAME FILL-ORIGIN LEVEL: 0 DIFFERENT FILL-ORIGIN LEVEL: 0

LLC SPEC fills:          0  NON-SPEC fills:     580899
LLC Test counter :          0
LLC Leapfrog:          0
LLC MSHR merge:          0
LLC TOTAL     ACCESS:   19614268  HIT:   11808553  MISS:    7805715  HIT %:    60.2039  MISS %:    39.7961   MPKI: 39.0286
LLC LOAD      TOTAL       ACCESS:    8977384  HIT:    5738724  MISS:    3238660  HIT %:    63.9242  MISS %:    36.0758   MPKI: 16.1933
LLC LOAD      NON_SPEC    ACCESS:    1645330  HIT:    1064431  MISS:     580899  HIT %:    64.6941  MISS %:    35.3059   MPKI: 2.90449
LLC LOAD      SPEC        ACCESS:    7332054  HIT:    4674293  MISS:    2657761  HIT %:    63.7515  MISS %:    36.2485   MPKI: 13.2888
LLC PREFETCH  NON_SPEC    ACCESS:    1720649  HIT:     249977  MISS:    1470672  HIT %:    14.5281  MISS %:    85.4719   MPKI: 7.35336
LLC WRITEBACK NON_SPEC    ACCESS:      27000  HIT:      26996  MISS:          4  HIT %:    99.9852  MISS %:  0.0148148   MPKI: 2e-05
LLC CLEAN_EVICTION NON_SPEC    ACCESS:    8730240  HIT:    5652246  MISS:    3077994  HIT %:    64.7433  MISS %:    35.2567   MPKI: 15.39
LLC COMMIT LOAD NON_SPEC    ACCESS:     153948  HIT:     137649  MISS:      16299  HIT %:    89.4127  MISS %:    10.5873   MPKI: 0.081495
LLC TRANSLATION FROM L1D PREFETCHER NON_SPEC    ACCESS:       5047  HIT:       2961  MISS:       2086  HIT %:    58.6685  MISS %:    41.3315   MPKI: 0.01043
LLC PREFETCH  REQUESTED:          0  ISSUED:          0  USEFUL:     123060  USELESS:    1347707
LLC USEFUL LOAD PREFETCHES:     123060 PREFETCH ISSUED TO LOWER LEVEL:    1470672  ACCURACY: 8.3676
LLC TIMELY PREFETCHES:     123060 LATE PREFETCHES: 0 DROPPED PREFETCHES: 0
LLC COMMIT LATE PREFETCHES: 0 NORMAL LATE: 0 MISSED OPPORTUNITY: 0 UNCOVERED: 0
LLC PREFETCHES SAME FILL-ORIGIN LEVEL: 0 DIFFERENT FILL-ORIGIN LEVEL: 0
LLC AVERAGE MISS LATENCY: 109.669 cycles
LLC AVERAGE MISS LATENCY LOAD: 166.266 cycles
LLC AVERAGE MISS LATENCY PREFETCH: 214.034 cycles
LLC AVERAGE MSHR OCCUPANCY: 1.23828
LLC MSHR FULL: 0
LLC RQ	ACCESS:    9136569	FORWARD:          0	MERGED:          0	TO_CACHE:    9136378
LLC WQ	ACCESS:    8757240	FORWARD:        195	MERGED:          0	TO_CACHE:    8757240
LLC PQ	ACCESS:    1720653	FORWARD:          0	MERGED:          0	TO_CACHE:    1720649

LLC Dense regions hint to LLC: 0

RAW hits: 30112
Loads Generated: 54367570
Loads sent to L1D: 54337458
Stores Generated: 248282
Stores sent to L1D: 248282
Major fault: 0 Minor fault: 18714
Allocated PAGES: 18714
Total Load insts: 66974704
Total Non-spec loads: 9993871
Percentage of speculative loads: 85.0781

LeapFrogging counter: 560789
Commit hits: 24287416 miss: 20400261
Commit hit %: 54.3492 miss %: 45.6508
Commits not translated: 0
Loads retired: 13710198
Stores retired: 248282
Cache fills: 13710200
L1D response latency: 67.1696 cycles
Load retirement latency: 156.806 cycles
OOO test counter: 0
Discarded buffer inserts: 24287416 hits: 1617 hit %: 0.00665777
Filter prediction accuracy: -nan
ALL MISSES SIZE: 17657
LATENCY_FILL: 67.0548 13696694
LATENCY_FILL_ROB: 144.696 13688526
test counter pref: 243819093
Max ROB Extended: 16
test counter pref: 153232698

DRAM Statistics
 CHANNEL 0
 RQ ROW_BUFFER_HIT:     578170  ROW_BUFFER_MISS:    4148328
 DBUS_CONGESTED:       1702
 WQ ROW_BUFFER_HIT:    1615559  ROW_BUFFER_MISS:    2772798  FULL:       1123

 AVG_CONGESTED_CYCLE: 5
 All warmup complete: 2
Channel 0 Bank busy for read cycles: 0
Channel 0 Bank busy for write cycles: 0
Channel 0
Rank 0
0banks busy for read cycles: 33457128
0banks busy for write cycles: 338058
1banks busy for read cycles: 204387732
1banks busy for write cycles: 57174039
2banks busy for read cycles: 98129663
2banks busy for write cycles: 52402756
3banks busy for read cycles: 40966829
3banks busy for write cycles: 38266751
4banks busy for read cycles: 14569621
4banks busy for write cycles: 26364889
5banks busy for read cycles: 5059817
5banks busy for write cycles: 18876026
6banks busy for read cycles: 2445052
6banks busy for write cycles: 15845706
7banks busy for read cycles: 2411434
7banks busy for write cycles: 19318137
8banks busy for read cycles: 2077125
8banks busy for write cycles: 34312365

CPU 0 Branch Prediction Accuracy: 94.3308% MPKI: 11.3996 Average ROB Occupancy at Mispredict: 48.3998
Branch types
NOT_BRANCH: 159783723 79.8919%
BRANCH_DIRECT_JUMP: 0 0%
BRANCH_INDIRECT: 0 0%
BRANCH_CONDITIONAL: 40215925 20.108%
BRANCH_DIRECT_CALL: 0 0%
BRANCH_INDIRECT_CALL: 0 0%
BRANCH_RETURN: 0 0%
BRANCH_OTHER: 0 0%

DRAM PAGES: 1048576
Allocated PAGES: 18714
