
*** ChampSim Multicore Out-of-Order Simulator ***

Warmup Instructions: 50000000
Simulation Instructions: 200000000
Number of CPUs: 1
LLC sets: 2048
LLC ways: 16
L0D sets: 16
L0D ways: 2
ROB size: 352
LQ size: 128
SQ size: 72
Secure Berti: ON
Berti: ON
Berti Fill: ON
On commit prefetching: OFF
Hit-based filter: OFF
Time-guarding: ON
Free-slotting: ON
Leap-frogging: ON
Train prefetcher on L0D bypass: OFF
No translation penalty for prefetchers: OFF
Prefetch to L0D only: OFF
Prefetch to L1D only: OFF
Clean evictions: ON
Commit loads: ON
Commit write: ON
Fill commit loads to L2C, LLC: ON
DRAM IO FREQUENCY: 6400
ROB SIZE: 352
Off-chip DRAM Size: 4096 MB Channels: 1 Width: 64-bit Data Rate: 6400 MT/s
CPU 0 runs /home/sumon/secure_berti/GhostMinion/../../traces/gap/pr-10.trace.gz
.gz
BTB has LRU replacement policy
ITLB has LRU replacement policy
DTLB has LRU replacement policy
STLB has LRU replacement policy
L1I has LRU replacement policy
L0D has LRU replacement policy
Berti version on_commit
History Sets: 8
History Ways: 16
BERTI Size: 16
BERTI Stride Size: 16
History Sets: 8
History Ways: 16
BERTI Size: 16
BERTI Stride Size: 16
L1D has LRU replacement policy
L2C has LRU replacement policy
LLC has LRU replacement policy
Heartbeat CPU 0 instructions: 10000002 cycles: 3333821 heartbeat IPC: 2.99956 cumulative IPC: 2.99956 (Simulation time: 0 hr 1 min 24 sec) 
Heartbeat CPU 0 instructions: 20000000 cycles: 19129830 heartbeat IPC: 0.633071 cumulative IPC: 1.04549 (Simulation time: 0 hr 4 min 9 sec) 
Heartbeat CPU 0 instructions: 30000003 cycles: 37214847 heartbeat IPC: 0.552944 cumulative IPC: 0.80613 (Simulation time: 0 hr 7 min 8 sec) 
Heartbeat CPU 0 instructions: 40000001 cycles: 55271480 heartbeat IPC: 0.553813 cumulative IPC: 0.723701 (Simulation time: 0 hr 10 min 7 sec) 
Heartbeat CPU 0 instructions: 50000001 cycles: 73149812 heartbeat IPC: 0.559336 cumulative IPC: 0.683529 (Simulation time: 0 hr 13 min 6 sec) 

Warmup complete CPU 0 instructions: 50000001 cycles: 73149812 (Simulation time: 0 hr 13 min 6 sec) 

Heartbeat CPU 0 instructions: 60000000 cycles: 264938564 heartbeat IPC: 0.0521407 cumulative IPC: 0.0521407 (Simulation time: 0 hr 19 min 52 sec) 
Heartbeat CPU 0 instructions: 70000000 cycles: 454882896 heartbeat IPC: 0.052647 cumulative IPC: 0.0523926 (Simulation time: 0 hr 26 min 37 sec) 
Heartbeat CPU 0 instructions: 80000000 cycles: 643466108 heartbeat IPC: 0.053027 cumulative IPC: 0.0526024 (Simulation time: 0 hr 33 min 24 sec) 
Heartbeat CPU 0 instructions: 90000000 cycles: 834184803 heartbeat IPC: 0.0524332 cumulative IPC: 0.05256 (Simulation time: 0 hr 40 min 12 sec) 
Heartbeat CPU 0 instructions: 100000002 cycles: 1026154530 heartbeat IPC: 0.0520916 cumulative IPC: 0.0524656 (Simulation time: 0 hr 47 min 3 sec) 
Heartbeat CPU 0 instructions: 110000000 cycles: 1216912493 heartbeat IPC: 0.0524224 cumulative IPC: 0.0524584 (Simulation time: 0 hr 53 min 46 sec) 
Heartbeat CPU 0 instructions: 120000000 cycles: 1407474453 heartbeat IPC: 0.0524764 cumulative IPC: 0.052461 (Simulation time: 1 hr 0 min 30 sec) 
Heartbeat CPU 0 instructions: 130000001 cycles: 1596902479 heartbeat IPC: 0.0527905 cumulative IPC: 0.052502 (Simulation time: 1 hr 7 min 16 sec) 
Heartbeat CPU 0 instructions: 140000000 cycles: 1784083312 heartbeat IPC: 0.0534243 cumulative IPC: 0.0526029 (Simulation time: 1 hr 13 min 53 sec) 
Heartbeat CPU 0 instructions: 150000000 cycles: 1975039961 heartbeat IPC: 0.0523679 cumulative IPC: 0.0525793 (Simulation time: 1 hr 20 min 32 sec) 
Heartbeat CPU 0 instructions: 160000000 cycles: 2165835827 heartbeat IPC: 0.052412 cumulative IPC: 0.052564 (Simulation time: 1 hr 27 min 11 sec) 
Heartbeat CPU 0 instructions: 170000001 cycles: 2356272027 heartbeat IPC: 0.052511 cumulative IPC: 0.0525596 (Simulation time: 1 hr 33 min 48 sec) 
Heartbeat CPU 0 instructions: 180000001 cycles: 2547922770 heartbeat IPC: 0.0521782 cumulative IPC: 0.0525301 (Simulation time: 1 hr 40 min 29 sec) 
Heartbeat CPU 0 instructions: 190000001 cycles: 2686985516 heartbeat IPC: 0.07191 cumulative IPC: 0.0535611 (Simulation time: 1 hr 45 min 52 sec) 
Heartbeat CPU 0 instructions: 200000003 cycles: 2729550256 heartbeat IPC: 0.234936 cumulative IPC: 0.0564674 (Simulation time: 1 hr 48 min 42 sec) 
Heartbeat CPU 0 instructions: 210000000 cycles: 2920374981 heartbeat IPC: 0.0524041 cumulative IPC: 0.0561951 (Simulation time: 1 hr 55 min 21 sec) 
Heartbeat CPU 0 instructions: 220000000 cycles: 3110710103 heartbeat IPC: 0.0525389 cumulative IPC: 0.055966 (Simulation time: 2 hr 2 min 1 sec) 
Heartbeat CPU 0 instructions: 230000001 cycles: 3302034598 heartbeat IPC: 0.0522672 cumulative IPC: 0.0557468 (Simulation time: 2 hr 8 min 40 sec) 
Heartbeat CPU 0 instructions: 240000001 cycles: 3491150207 heartbeat IPC: 0.0528777 cumulative IPC: 0.0555881 (Simulation time: 2 hr 15 min 22 sec) 
Heartbeat CPU 0 instructions: 250000001 cycles: 3681832448 heartbeat IPC: 0.0524433 cumulative IPC: 0.0554219 (Simulation time: 2 hr 22 min 2 sec) 
Finished CPU 0 instructions: 200000000 cycles: 3608682636 cumulative IPC: 0.0554219 (Simulation time: 2 hr 22 min 2 sec) 
 Instruction ID: 250000130

ChampSim completed all CPUs

Region of Interest Statistics

CPU 0 cumulative IPC: 0.0554219 instructions: 200000000 cycles: 3608682636
ITLB SPEC fills:          0  NON-SPEC fills:          0
ITLB Test counter :          0
ITLB Leapfrog:          0
ITLB MSHR merge:          0
ITLB TOTAL     ACCESS:   58868363  HIT:   58868363  MISS:          0  HIT %:        100  MISS %:          0   MPKI: 0
ITLB LOAD TRANSLATION NON_SPEC    ACCESS:   58868363  HIT:   58868363  MISS:          0  HIT %:        100  MISS %:          0   MPKI: 0
ITLB PREFETCH  REQUESTED:          0  ISSUED:          0  USEFUL:          0  USELESS:          0
ITLB USEFUL LOAD PREFETCHES:          0 PREFETCH ISSUED TO LOWER LEVEL:          0  ACCURACY: -nan
ITLB TIMELY PREFETCHES:          0 LATE PREFETCHES: 0 DROPPED PREFETCHES: 0
ITLB COMMIT LATE PREFETCHES: 0 NORMAL LATE: 0 MISSED OPPORTUNITY: 0 UNCOVERED: 0
ITLB PREFETCHES SAME FILL-ORIGIN LEVEL: 0 DIFFERENT FILL-ORIGIN LEVEL: 0
ITLB AVERAGE MISS LATENCY: -nan cycles
ITLB AVERAGE MISS LATENCY LOAD: -nan cycles
ITLB AVERAGE MISS LATENCY PREFETCH: -nan cycles
ITLB AVERAGE MSHR OCCUPANCY: 0
ITLB MSHR FULL: 0
ITLB RQ	ACCESS:   59993295	FORWARD:          0	MERGED:    1124932	TO_CACHE:   58868363

DTLB SPEC fills:          0  NON-SPEC fills:          0
DTLB Test counter :          0
DTLB Leapfrog:          0
DTLB MSHR merge:          0
DTLB TOTAL     ACCESS:   71504438  HIT:   48549767  MISS:   22954671  HIT %:    67.8976  MISS %:    32.1024   MPKI: 114.773
DTLB LOAD TRANSLATION NON_SPEC    ACCESS:   71504438  HIT:   48549767  MISS:   22954671  HIT %:    67.8976  MISS %:    32.1024   MPKI: 114.773
DTLB PREFETCH  REQUESTED:          0  ISSUED:          0  USEFUL:          0  USELESS:          0
DTLB USEFUL LOAD PREFETCHES:          0 PREFETCH ISSUED TO LOWER LEVEL:          0  ACCURACY: -nan
DTLB TIMELY PREFETCHES:          0 LATE PREFETCHES: 0 DROPPED PREFETCHES: 0
DTLB COMMIT LATE PREFETCHES: 0 NORMAL LATE: 0 MISSED OPPORTUNITY: 0 UNCOVERED: 0
DTLB PREFETCHES SAME FILL-ORIGIN LEVEL: 0 DIFFERENT FILL-ORIGIN LEVEL: 0
DTLB AVERAGE MISS LATENCY: 9.18557 cycles
DTLB AVERAGE MISS LATENCY LOAD: -nan cycles
DTLB AVERAGE MISS LATENCY PREFETCH: -nan cycles
DTLB AVERAGE MSHR OCCUPANCY: 0.193814
DTLB MSHR FULL: 0
DTLB RQ	ACCESS:   72365213	FORWARD:          0	MERGED:     851285	TO_CACHE:   71513928

STLB SPEC fills:          0  NON-SPEC fills:          0
STLB Test counter :          0
STLB Leapfrog:          0
STLB MSHR merge:          0
STLB TOTAL     ACCESS:   65073208  HIT:   65032378  MISS:      40830  HIT %:    99.9373  MISS %:  0.0627447   MPKI: 0.20415
STLB LOAD TRANSLATION NON_SPEC    ACCESS:   22954671  HIT:   22929221  MISS:      25450  HIT %:    99.8891  MISS %:   0.110871   MPKI: 0.12725
STLB TRANSLATION FROM L1D PREFETCHER NON_SPEC    ACCESS:   42118537  HIT:   42103157  MISS:      15380  HIT %:    99.9635  MISS %:   0.036516   MPKI: 0.0769
STLB PREFETCH  REQUESTED:          0  ISSUED:          0  USEFUL:      15380  USELESS:          0
STLB USEFUL LOAD PREFETCHES:      15380 PREFETCH ISSUED TO LOWER LEVEL:          0  ACCURACY: inf
STLB TIMELY PREFETCHES:      15380 LATE PREFETCHES: 14866 DROPPED PREFETCHES: 2607398
STLB COMMIT LATE PREFETCHES: 0 NORMAL LATE: 0 MISSED OPPORTUNITY: 0 UNCOVERED: 0
STLB PREFETCHES SAME FILL-ORIGIN LEVEL: 0 DIFFERENT FILL-ORIGIN LEVEL: 0
STLB AVERAGE MISS LATENCY: 155.371 cycles
STLB AVERAGE MISS LATENCY LOAD: -nan cycles
STLB AVERAGE MISS LATENCY PREFETCH: -nan cycles
STLB AVERAGE MSHR OCCUPANCY: 0.0557817
STLB MSHR FULL: 0
STLB RQ	ACCESS:  302566220	FORWARD:          0	MERGED:  234777455	TO_CACHE:   67788765

STLB Hit, L1D data hit: 0
STLB Hit, L2C data hit: 0
STLB Hit, LLC data hit: 0
STLB Hit, LLC data miss: 0
STLB STLB hints to L2: 0
L0D SPEC fills:    5848688  NON-SPEC fills:          0
L0D TimeGuard Request with older TS:      69746 Restricted eviction:      12905 read:        687
L0D Test counter :          0
L0D Leapfrog:          0
L0D MSHR merge:    1064066
L0D TOTAL     ACCESS:   68001468  HIT:   24476150  MISS:   43525318  HIT %:    35.9936  MISS %:    64.0064   MPKI: 217.627
L0D LOAD      TOTAL       ACCESS:   68001468  HIT:   24476150  MISS:   43525318  HIT %:    35.9936  MISS %:    64.0064   MPKI: 217.627
L0D LOAD      NON_SPEC    ACCESS:   37663729  HIT:          4  MISS:   37663725  HIT %: 1.06203e-05  MISS %:        100   MPKI: 188.319
L0D LOAD      SPEC        ACCESS:   30337739  HIT:   24476146  MISS:    5861593  HIT %:    80.6789  MISS %:    19.3211   MPKI: 29.308
L0D PREFETCH  REQUESTED:          0  ISSUED:          0  USEFUL:          0  USELESS:          0
L0D USEFUL LOAD PREFETCHES:          0 PREFETCH ISSUED TO LOWER LEVEL:          0  ACCURACY: -nan
L0D TIMELY PREFETCHES:          0 LATE PREFETCHES: 0 DROPPED PREFETCHES: 0
L0D COMMIT LATE PREFETCHES: 0 NORMAL LATE: 0 MISSED OPPORTUNITY: 0 UNCOVERED: 0
L0D PREFETCHES SAME FILL-ORIGIN LEVEL: 0 DIFFERENT FILL-ORIGIN LEVEL: 0
L0D AVERAGE MISS LATENCY: 70.7987 cycles
L0D AVERAGE MISS LATENCY LOAD: 70.7987 cycles
L0D AVERAGE MISS LATENCY PREFETCH: -nan cycles
L0D AVERAGE MSHR OCCUPANCY: 0.220555
L0D MSHR FULL: 0
L0D RQ	ACCESS:   77353833	FORWARD:          0	MERGED:    8288300	TO_CACHE:   69065533
L0D WQ	ACCESS:    3299680	FORWARD:          0	MERGED:          0	TO_CACHE:    3299680

L1D SPEC fills:          0  NON-SPEC fills:   31924853
L1D Test counter :   31908415
L1D Leapfrog:          0
L1D MSHR merge:      35109
L1D TOTAL     ACCESS:  281312847  HIT:  246628795  MISS:   34684052  HIT %:    87.6706  MISS %:    12.3294   MPKI: 173.42
L1D LOAD      TOTAL       ACCESS:   43525314  HIT:   11542979  MISS:   31982335  HIT %:    26.5202  MISS %:    73.4798   MPKI: 159.912
L1D LOAD      NON_SPEC    ACCESS:   37663725  HIT:    5738872  MISS:   31924853  HIT %:    15.2371  MISS %:    84.7629   MPKI: 159.624
L1D LOAD      SPEC        ACCESS:    5861589  HIT:    5804107  MISS:      57482  HIT %:    99.0193  MISS %:   0.980656   MPKI: 0.28741
L1D RFO       NON_SPEC    ACCESS:    2510353  HIT:    2444793  MISS:      65560  HIT %:    97.3884  MISS %:    2.61158   MPKI: 0.3278
L1D PREFETCH  NON_SPEC    ACCESS:  196240170  HIT:  193632445  MISS:    2607725  HIT %:    98.6712  MISS %:    1.32884   MPKI: 13.0386
L1D COMMIT LOAD NON_SPEC    ACCESS:   33188343  HIT:   33188317  MISS:         26  HIT %:    99.9999  MISS %: 7.83408e-05   MPKI: 0.00013
L1D COMMIT WRITE NON_SPEC    ACCESS:    5848667  HIT:    5820261  MISS:      28406  HIT %:    99.5143  MISS %:   0.485683   MPKI: 0.14203
L1D PREFETCH  REQUESTED:  298083960  ISSUED:  293319127  USEFUL:    2536914  USELESS:      70815
L1D USEFUL LOAD PREFETCHES:    2536914 PREFETCH ISSUED TO LOWER LEVEL:   77626393  ACCURACY: 3.26811
L1D TIMELY PREFETCHES:    2536914 LATE PREFETCHES: 35105 DROPPED PREFETCHES: 6491728
L1D COMMIT LATE PREFETCHES: 28143 NORMAL LATE: 249856 MISSED OPPORTUNITY: 1941 UNCOVERED: 31702395
L1D PREFETCHES SAME FILL-ORIGIN LEVEL: 2642830 DIFFERENT FILL-ORIGIN LEVEL: 74983563
L1D AVERAGE MISS LATENCY: 87.2301 cycles
L1D AVERAGE MISS LATENCY LOAD: 89.5409 cycles
L1D AVERAGE MISS LATENCY PREFETCH: 55.887 cycles
L1D AVERAGE MSHR OCCUPANCY: 0.216309
L1D MSHR FULL: 2.47674e-07
L1D RQ	ACCESS:   77365309	FORWARD:          0	MERGED:     640694	TO_CACHE:   76713661
L1D WQ	ACCESS:    9148347	FORWARD:      10954	MERGED:        478	TO_CACHE:    9147869
L1D PQ	ACCESS:  293319127	FORWARD:          0	MERGED:   13707578	TO_CACHE:  279611549

L1D UNIQUE REGIONS ACCESSED: 0
L1D REGIONS CONFLICTS: 0
L1D Cross Page Prefetch Requests: 30619477
L1D Same Page Prefetch Requests: 334423653
L1D ROI Sum of L1D PQ occupancy: 4956740998
L1D PREFETCHES PUSHED FROM L2C: 0
L1I SPEC fills:          0  NON-SPEC fills:          0
L1I Test counter :          0
L1I Leapfrog:          0
L1I MSHR merge:          1
L1I TOTAL     ACCESS:   59993294  HIT:   59993271  MISS:         23  HIT %:        100  MISS %: 3.83376e-05   MPKI: 0.000115
L1I LOAD      TOTAL       ACCESS:   59993294  HIT:   59993271  MISS:         23  HIT %:        100  MISS %: 3.83376e-05   MPKI: 0.000115
L1I LOAD      NON_SPEC    ACCESS:   59993294  HIT:   59993271  MISS:         23  HIT %:        100  MISS %: 3.83376e-05   MPKI: 0.000115
L1I PREFETCH  REQUESTED:          0  ISSUED:          0  USEFUL:          0  USELESS:          0
L1I USEFUL LOAD PREFETCHES:          0 PREFETCH ISSUED TO LOWER LEVEL:          0  ACCURACY: -nan
L1I TIMELY PREFETCHES:          0 LATE PREFETCHES: 0 DROPPED PREFETCHES: 0
L1I COMMIT LATE PREFETCHES: 0 NORMAL LATE: 0 MISSED OPPORTUNITY: 0 UNCOVERED: 0
L1I PREFETCHES SAME FILL-ORIGIN LEVEL: 0 DIFFERENT FILL-ORIGIN LEVEL: 0
L1I AVERAGE MISS LATENCY: 174.87 cycles
L1I AVERAGE MISS LATENCY LOAD: 174.87 cycles
L1I AVERAGE MISS LATENCY PREFETCH: -nan cycles
L1I AVERAGE MSHR OCCUPANCY: 1.33348e-07
L1I MSHR FULL: 0
L1I RQ	ACCESS:   71094499	FORWARD:          0	MERGED:   11101204	TO_CACHE:   59993295

BTB SPEC fills:          0  NON-SPEC fills:          0
BTB Test counter :          0
BTB Leapfrog:          0
BTB MSHR merge:          0
BTB TOTAL     ACCESS:   37027234  HIT:   37027062  MISS:        172  HIT %:    99.9995  MISS %: 0.000464523   MPKI: 0.00086
BTB BRANCH_DIRECT_JUMP	ACCESS:         67  HIT:         33  MISS:         34
BTB BRANCH_INDIRECT	ACCESS:          4  HIT:          0  MISS:          4
BTB BRANCH_CONDITIONAL	ACCESS:   37027097  HIT:   37027009  MISS:         88
BTB BRANCH_DIRECT_CALL	ACCESS:         28  HIT:         10  MISS:         18
BTB BRANCH_INDIRECT_CALL	ACCESS:          5  HIT:          1  MISS:          4
BTB BRANCH_RETURN	ACCESS:         33  HIT:          9  MISS:         24
BTB BRANCH_OTHER ACCESS:          0  HIT:          0  MISS:          0

L2C SPEC fills:          0  NON-SPEC fills:   22701258
L2C Test counter :          0
L2C Leapfrog:          0
L2C MSHR merge:     129048
L2C TOTAL     ACCESS:  121100477  HIT:   92736654  MISS:   28363823  HIT %:    76.5783  MISS %:    23.4217   MPKI: 141.819
L2C LOAD      TOTAL       ACCESS:   31947252  HIT:    9241217  MISS:   22706035  HIT %:    28.9265  MISS %:    71.0735   MPKI: 113.53
L2C LOAD      NON_SPEC    ACCESS:   31914826  HIT:    9213545  MISS:   22701281  HIT %:    28.8692  MISS %:    71.1308   MPKI: 113.506
L2C LOAD      SPEC        ACCESS:      32426  HIT:      27672  MISS:       4754  HIT %:    85.3389  MISS %:    14.6611   MPKI: 0.02377
L2C RFO       NON_SPEC    ACCESS:      65560  HIT:         70  MISS:      65490  HIT %:   0.106772  MISS %:    99.8932   MPKI: 0.32745
L2C PREFETCH  NON_SPEC    ACCESS:   73172983  HIT:   67602266  MISS:    5570717  HIT %:    92.3869  MISS %:    7.61308   MPKI: 27.8536
L2C WRITEBACK NON_SPEC    ACCESS:      73240  HIT:      72994  MISS:        246  HIT %:    99.6641  MISS %:   0.335882   MPKI: 0.00123
L2C CLEAN_EVICTION NON_SPEC    ACCESS:    2532498  HIT:    2525295  MISS:       7203  HIT %:    99.7156  MISS %:   0.284423   MPKI: 0.036015
L2C COMMIT LOAD NON_SPEC    ACCESS:         26  HIT:         26  MISS:          0  HIT %:        100  MISS %:          0   MPKI: 0
L2C LOAD TRANSLATION NON_SPEC    ACCESS:     127198  HIT:     126938  MISS:        260  HIT %:    99.7956  MISS %:   0.204406   MPKI: 0.0013
L2C TRANSLATION FROM L1D PREFETCHER NON_SPEC    ACCESS:   13181720  HIT:   13167848  MISS:      13872  HIT %:    99.8948  MISS %:   0.105237   MPKI: 0.06936
L2C PREFETCH  REQUESTED:          0  ISSUED:          0  USEFUL:     553570  USELESS:    5031028
L2C USEFUL LOAD PREFETCHES:     553570 PREFETCH ISSUED TO LOWER LEVEL:    5699765  ACCURACY: 9.71215
L2C TIMELY PREFETCHES:     553570 LATE PREFETCHES: 129048 DROPPED PREFETCHES: 0
L2C COMMIT LATE PREFETCHES: 0 NORMAL LATE: 129925 MISSED OPPORTUNITY: 0 UNCOVERED: 22576110
L2C PREFETCHES SAME FILL-ORIGIN LEVEL: 5189060 DIFFERENT FILL-ORIGIN LEVEL: 0
L2C AVERAGE MISS LATENCY: 117.503 cycles
L2C AVERAGE MISS LATENCY LOAD: 104.789 cycles
L2C AVERAGE MISS LATENCY PREFETCH: 168.178 cycles
L2C AVERAGE MSHR OCCUPANCY: 0.37166
L2C MSHR FULL: 0
L2C RQ	ACCESS:   45321757	FORWARD:          0	MERGED:          0	TO_CACHE:   45321756
L2C WQ	ACCESS:    2605738	FORWARD:          1	MERGED:          0	TO_CACHE:    2605738
L2C PQ	ACCESS:   77626393	FORWARD:          0	MERGED:         16	TO_CACHE:   77626377

L2C Instructions Evicting Data 23
L2C Translations Evicting Data 14125
L2C Data Evicting Data 28323321
L2C Instructions Evicting Instructions 0
L2C Translations Evicting Instructions 0
L2C Data Evicting Instructions 23
L2C Instructions Evicting Translations 0
L2C Translations Evicting Translations 7
L2C Data Evicting Translations 14121
L2C Dense regions hint from L2: 0
PSCL5 SPEC fills:          0  NON-SPEC fills:          0
PSCL5 Test counter :          0
PSCL5 Leapfrog:          0
PSCL5 MSHR merge:          0
PSCL5 TOTAL     ACCESS:          0  HIT:          0  MISS:          0  HIT %:       -nan  MISS %:       -nan   MPKI: 0
PSCL5 PREFETCH  REQUESTED:          0  ISSUED:          0  USEFUL:          0  USELESS:          0
PSCL5 USEFUL LOAD PREFETCHES:          0 PREFETCH ISSUED TO LOWER LEVEL:          0  ACCURACY: -nan
PSCL5 TIMELY PREFETCHES:          0 LATE PREFETCHES: 0 DROPPED PREFETCHES: 0
PSCL5 COMMIT LATE PREFETCHES: 0 NORMAL LATE: 0 MISSED OPPORTUNITY: 0 UNCOVERED: 0
PSCL5 PREFETCHES SAME FILL-ORIGIN LEVEL: 0 DIFFERENT FILL-ORIGIN LEVEL: 0

PSCL4 SPEC fills:          0  NON-SPEC fills:          0
PSCL4 Test counter :          0
PSCL4 Leapfrog:          0
PSCL4 MSHR merge:          0
PSCL4 TOTAL     ACCESS:          0  HIT:          0  MISS:          0  HIT %:       -nan  MISS %:       -nan   MPKI: 0
PSCL4 PREFETCH  REQUESTED:          0  ISSUED:          0  USEFUL:          0  USELESS:          0
PSCL4 USEFUL LOAD PREFETCHES:          0 PREFETCH ISSUED TO LOWER LEVEL:          0  ACCURACY: -nan
PSCL4 TIMELY PREFETCHES:          0 LATE PREFETCHES: 0 DROPPED PREFETCHES: 0
PSCL4 COMMIT LATE PREFETCHES: 0 NORMAL LATE: 0 MISSED OPPORTUNITY: 0 UNCOVERED: 0
PSCL4 PREFETCHES SAME FILL-ORIGIN LEVEL: 0 DIFFERENT FILL-ORIGIN LEVEL: 0

PSCL3 SPEC fills:          0  NON-SPEC fills:          0
PSCL3 Test counter :          0
PSCL3 Leapfrog:          0
PSCL3 MSHR merge:          0
PSCL3 TOTAL     ACCESS:          0  HIT:          0  MISS:          0  HIT %:       -nan  MISS %:       -nan   MPKI: 0
PSCL3 PREFETCH  REQUESTED:          0  ISSUED:          0  USEFUL:          0  USELESS:          0
PSCL3 USEFUL LOAD PREFETCHES:          0 PREFETCH ISSUED TO LOWER LEVEL:          0  ACCURACY: -nan
PSCL3 TIMELY PREFETCHES:          0 LATE PREFETCHES: 0 DROPPED PREFETCHES: 0
PSCL3 COMMIT LATE PREFETCHES: 0 NORMAL LATE: 0 MISSED OPPORTUNITY: 0 UNCOVERED: 0
PSCL3 PREFETCHES SAME FILL-ORIGIN LEVEL: 0 DIFFERENT FILL-ORIGIN LEVEL: 0

PSCL2 SPEC fills:          0  NON-SPEC fills:          0
PSCL2 Test counter :          0
PSCL2 Leapfrog:          0
PSCL2 MSHR merge:          0
PSCL2 TOTAL     ACCESS:          0  HIT:          0  MISS:          0  HIT %:       -nan  MISS %:       -nan   MPKI: 0
PSCL2 PREFETCH  REQUESTED:          0  ISSUED:          0  USEFUL:          0  USELESS:          0
PSCL2 USEFUL LOAD PREFETCHES:          0 PREFETCH ISSUED TO LOWER LEVEL:          0  ACCURACY: -nan
PSCL2 TIMELY PREFETCHES:          0 LATE PREFETCHES: 0 DROPPED PREFETCHES: 0
PSCL2 COMMIT LATE PREFETCHES: 0 NORMAL LATE: 0 MISSED OPPORTUNITY: 0 UNCOVERED: 0
PSCL2 PREFETCHES SAME FILL-ORIGIN LEVEL: 0 DIFFERENT FILL-ORIGIN LEVEL: 0

LLC SPEC fills:          0  NON-SPEC fills:   10520891
LLC Test counter :          0
LLC Leapfrog:          0
LLC MSHR merge:          0
LLC TOTAL     ACCESS:   30939253  HIT:   15420932  MISS:   15518321  HIT %:    49.8426  MISS %:    50.1574   MPKI: 77.5916
LLC LOAD      TOTAL       ACCESS:   22576987  HIT:   12052188  MISS:   10524799  HIT %:    53.3826  MISS %:    46.6174   MPKI: 52.624
LLC LOAD      NON_SPEC    ACCESS:   22572238  HIT:   12051324  MISS:   10520914  HIT %:      53.39  MISS %:      46.61   MPKI: 52.6046
LLC LOAD      SPEC        ACCESS:       4749  HIT:        864  MISS:       3885  HIT %:    18.1933  MISS %:    81.8067   MPKI: 0.019425
LLC RFO       NON_SPEC    ACCESS:      65490  HIT:       1490  MISS:      64000  HIT %:    2.27516  MISS %:    97.7248   MPKI: 0.32
LLC PREFETCH  NON_SPEC    ACCESS:    5699765  HIT:     777793  MISS:    4921972  HIT %:    13.6461  MISS %:    86.3539   MPKI: 24.6099
LLC WRITEBACK NON_SPEC    ACCESS:      66456  HIT:      66238  MISS:        218  HIT %:     99.672  MISS %:   0.328037   MPKI: 0.00109
LLC CLEAN_EVICTION NON_SPEC    ACCESS:    2516423  HIT:    2515378  MISS:       1045  HIT %:    99.9585  MISS %:  0.0415272   MPKI: 0.005225
LLC LOAD TRANSLATION NON_SPEC    ACCESS:        260  HIT:         10  MISS:        250  HIT %:    3.84615  MISS %:    96.1538   MPKI: 0.00125
LLC TRANSLATION FROM L1D PREFETCHER NON_SPEC    ACCESS:      13872  HIT:       7835  MISS:       6037  HIT %:    56.4807  MISS %:    43.5193   MPKI: 0.030185
LLC PREFETCH  REQUESTED:          0  ISSUED:          0  USEFUL:     393287  USELESS:    4534886
LLC USEFUL LOAD PREFETCHES:     393287 PREFETCH ISSUED TO LOWER LEVEL:    4921972  ACCURACY: 7.99044
LLC TIMELY PREFETCHES:     393287 LATE PREFETCHES: 0 DROPPED PREFETCHES: 0
LLC COMMIT LATE PREFETCHES: 0 NORMAL LATE: 0 MISSED OPPORTUNITY: 0 UNCOVERED: 0
LLC PREFETCHES SAME FILL-ORIGIN LEVEL: 0 DIFFERENT FILL-ORIGIN LEVEL: 0
LLC AVERAGE MISS LATENCY: 160.544 cycles
LLC AVERAGE MISS LATENCY LOAD: 160.396 cycles
LLC AVERAGE MISS LATENCY PREFETCH: 160.305 cycles
LLC AVERAGE MSHR OCCUPANCY: 0.20702
LLC MSHR FULL: 0
LLC RQ	ACCESS:   22656609	FORWARD:          0	MERGED:          0	TO_CACHE:   22656609
LLC WQ	ACCESS:    2582879	FORWARD:          0	MERGED:          0	TO_CACHE:    2582879
LLC PQ	ACCESS:    5699765	FORWARD:          0	MERGED:          0	TO_CACHE:    5699765

LLC Dense regions hint to LLC: 0

RAW hits: 22
Loads Generated: 77353857
Loads sent to L1D: 77353833
Stores Generated: 3299680
Stores sent to L1D: 3299680
Major fault: 0 Minor fault: 34900
Allocated PAGES: 34900
Total Load insts: 95651031
Total Non-spec loads: 44963419
Percentage of speculative loads: 52.9922

LeapFrogging counter: 0
Commit hits: 5848667 miss: 33839992
Commit hit %: 14.7364 miss %: 85.2636
Commits not translated: 0
Loads retired: 31982334
Stores retired: 3299680
Cache fills: 31982335
L1D response latency: 89.5409 cycles
Load retirement latency: 107.022 cycles
OOO test counter: 0
Discarded buffer inserts: 5848667 hits: 18021 hit %: 0.308121
Filter prediction accuracy: -nan
ALL MISSES SIZE: 2842
LATENCY_FILL: 89.4266 31938704
LATENCY_FILL_ROB: 95.1553 31945783
test counter pref: 607614051
Max ROB Extended: 10
test counter pref: 592197141

DRAM Statistics
 CHANNEL 0
 RQ ROW_BUFFER_HIT:    2653279  ROW_BUFFER_MISS:   12863778
 DBUS_CONGESTED:      25155
 WQ ROW_BUFFER_HIT:     829409  ROW_BUFFER_MISS:    1754213  FULL:          0

 AVG_CONGESTED_CYCLE: 2
 All warmup complete: 2
Channel 0 Bank busy for read cycles: 0
Channel 0 Bank busy for write cycles: 0
Channel 0
Rank 0
0banks busy for read cycles: 1472525669
0banks busy for write cycles: 1608553
1banks busy for read cycles: 1506307474
1banks busy for write cycles: 317382931
2banks busy for read cycles: 165151625
2banks busy for write cycles: 50583362
3banks busy for read cycles: 25903576
3banks busy for write cycles: 12849257
4banks busy for read cycles: 11500405
4banks busy for write cycles: 6662110
5banks busy for read cycles: 6193931
5banks busy for write cycles: 4323515
6banks busy for read cycles: 5735477
6banks busy for write cycles: 2785028
7banks busy for read cycles: 3530408
7banks busy for write cycles: 2294859
8banks busy for read cycles: 1723980
8banks busy for write cycles: 11620477

CPU 0 Branch Prediction Accuracy: 96.9594% MPKI: 5.62926 Average ROB Occupancy at Mispredict: 138.065
Branch types
NOT_BRANCH: 162972286 81.4861%
BRANCH_DIRECT_JUMP: 67 3.35e-05%
BRANCH_INDIRECT: 4 2e-06%
BRANCH_CONDITIONAL: 37027324 18.5137%
BRANCH_DIRECT_CALL: 28 1.4e-05%
BRANCH_INDIRECT_CALL: 5 2.5e-06%
BRANCH_RETURN: 33 1.65e-05%
BRANCH_OTHER: 0 0%

DRAM PAGES: 1048576
Allocated PAGES: 34900
