
*** ChampSim Multicore Out-of-Order Simulator ***

Warmup Instructions: 50000000
Simulation Instructions: 200000000
Number of CPUs: 1
LLC sets: 2048
LLC ways: 16
L0D sets: 16
L0D ways: 2
ROB size: 352
LQ size: 128
SQ size: 72
Secure Berti: ON
Berti: ON
Berti Fill: ON
On commit prefetching: OFF
Hit-based filter: OFF
Time-guarding: ON
Free-slotting: ON
Leap-frogging: ON
Train prefetcher on L0D bypass: OFF
No translation penalty for prefetchers: OFF
Prefetch to L0D only: OFF
Prefetch to L1D only: OFF
Clean evictions: ON
Commit loads: ON
Commit write: ON
Fill commit loads to L2C, LLC: ON
DRAM IO FREQUENCY: 6400
ROB SIZE: 352
Off-chip DRAM Size: 4096 MB Channels: 1 Width: 64-bit Data Rate: 6400 MT/s
CPU 0 runs /home/sumon/secure_berti/GhostMinion/../../traces/gap/sssp-10.trace.gz
.gz
BTB has LRU replacement policy
ITLB has LRU replacement policy
DTLB has LRU replacement policy
STLB has LRU replacement policy
L1I has LRU replacement policy
L0D has LRU replacement policy
Berti version on_commit
History Sets: 8
History Ways: 16
BERTI Size: 16
BERTI Stride Size: 16
History Sets: 8
History Ways: 16
BERTI Size: 16
BERTI Stride Size: 16
L1D has LRU replacement policy
L2C has LRU replacement policy
LLC has LRU replacement policy
Heartbeat CPU 0 instructions: 10000000 cycles: 3957066 heartbeat IPC: 2.52712 cumulative IPC: 2.52712 (Simulation time: 0 hr 1 min 28 sec) 
Heartbeat CPU 0 instructions: 20000001 cycles: 7789054 heartbeat IPC: 2.60961 cumulative IPC: 2.56771 (Simulation time: 0 hr 3 min 8 sec) 
Heartbeat CPU 0 instructions: 30000003 cycles: 11577638 heartbeat IPC: 2.63951 cumulative IPC: 2.5912 (Simulation time: 0 hr 4 min 48 sec) 
Heartbeat CPU 0 instructions: 40000002 cycles: 15337573 heartbeat IPC: 2.65962 cumulative IPC: 2.60797 (Simulation time: 0 hr 6 min 29 sec) 
Heartbeat CPU 0 instructions: 50000001 cycles: 19079986 heartbeat IPC: 2.67207 cumulative IPC: 2.62055 (Simulation time: 0 hr 8 min 10 sec) 

Warmup complete CPU 0 instructions: 50000001 cycles: 19079986 (Simulation time: 0 hr 8 min 10 sec) 

Heartbeat CPU 0 instructions: 60000000 cycles: 47563771 heartbeat IPC: 0.351077 cumulative IPC: 0.351077 (Simulation time: 0 hr 10 min 25 sec) 
Heartbeat CPU 0 instructions: 70000000 cycles: 74709644 heartbeat IPC: 0.36838 cumulative IPC: 0.35952 (Simulation time: 0 hr 12 min 40 sec) 
Heartbeat CPU 0 instructions: 80000001 cycles: 101468199 heartbeat IPC: 0.373712 cumulative IPC: 0.36413 (Simulation time: 0 hr 14 min 55 sec) 
Heartbeat CPU 0 instructions: 90000000 cycles: 127177251 heartbeat IPC: 0.388968 cumulative IPC: 0.370037 (Simulation time: 0 hr 17 min 11 sec) 
Heartbeat CPU 0 instructions: 100000000 cycles: 153001287 heartbeat IPC: 0.387236 cumulative IPC: 0.373354 (Simulation time: 0 hr 19 min 27 sec) 
Heartbeat CPU 0 instructions: 110000000 cycles: 178270915 heartbeat IPC: 0.395732 cumulative IPC: 0.376906 (Simulation time: 0 hr 21 min 43 sec) 
Heartbeat CPU 0 instructions: 120000003 cycles: 203947187 heartbeat IPC: 0.389465 cumulative IPC: 0.37865 (Simulation time: 0 hr 24 min 0 sec) 
Heartbeat CPU 0 instructions: 130000002 cycles: 228515818 heartbeat IPC: 0.407023 cumulative IPC: 0.381979 (Simulation time: 0 hr 26 min 18 sec) 
Heartbeat CPU 0 instructions: 140000002 cycles: 253146114 heartbeat IPC: 0.406004 cumulative IPC: 0.384507 (Simulation time: 0 hr 28 min 35 sec) 
Heartbeat CPU 0 instructions: 150000000 cycles: 278537890 heartbeat IPC: 0.393828 cumulative IPC: 0.385419 (Simulation time: 0 hr 30 min 56 sec) 
Heartbeat CPU 0 instructions: 160000001 cycles: 302980904 heartbeat IPC: 0.409115 cumulative IPC: 0.387459 (Simulation time: 0 hr 33 min 14 sec) 
Heartbeat CPU 0 instructions: 170000002 cycles: 327840257 heartbeat IPC: 0.402263 cumulative IPC: 0.388651 (Simulation time: 0 hr 35 min 34 sec) 
Heartbeat CPU 0 instructions: 180000001 cycles: 353302439 heartbeat IPC: 0.392739 cumulative IPC: 0.388963 (Simulation time: 0 hr 37 min 55 sec) 
Heartbeat CPU 0 instructions: 190000002 cycles: 378718831 heartbeat IPC: 0.393447 cumulative IPC: 0.389279 (Simulation time: 0 hr 40 min 18 sec) 
Heartbeat CPU 0 instructions: 200000003 cycles: 402216331 heartbeat IPC: 0.425577 cumulative IPC: 0.391506 (Simulation time: 0 hr 42 min 36 sec) 
Heartbeat CPU 0 instructions: 210000003 cycles: 426158237 heartbeat IPC: 0.417678 cumulative IPC: 0.393045 (Simulation time: 0 hr 44 min 56 sec) 
Heartbeat CPU 0 instructions: 220000000 cycles: 450241192 heartbeat IPC: 0.415231 cumulative IPC: 0.394284 (Simulation time: 0 hr 47 min 18 sec) 
Heartbeat CPU 0 instructions: 230000002 cycles: 473774381 heartbeat IPC: 0.424932 cumulative IPC: 0.39587 (Simulation time: 0 hr 49 min 39 sec) 
Heartbeat CPU 0 instructions: 240000001 cycles: 497348367 heartbeat IPC: 0.424196 cumulative IPC: 0.397266 (Simulation time: 0 hr 51 min 58 sec) 
Heartbeat CPU 0 instructions: 250000000 cycles: 520923942 heartbeat IPC: 0.424168 cumulative IPC: 0.39853 (Simulation time: 0 hr 54 min 18 sec) 
Finished CPU 0 instructions: 200000003 cycles: 501843957 cumulative IPC: 0.39853 (Simulation time: 0 hr 54 min 18 sec) 
 Instruction ID: 250000054

ChampSim completed all CPUs

Region of Interest Statistics

CPU 0 cumulative IPC: 0.39853 instructions: 200000003 cycles: 501843957
ITLB SPEC fills:          0  NON-SPEC fills:          0
ITLB Test counter :          0
ITLB Leapfrog:          0
ITLB MSHR merge:          0
ITLB TOTAL     ACCESS:   24163974  HIT:   24163974  MISS:          0  HIT %:        100  MISS %:          0   MPKI: 0
ITLB LOAD TRANSLATION NON_SPEC    ACCESS:   24163974  HIT:   24163974  MISS:          0  HIT %:        100  MISS %:          0   MPKI: 0
ITLB PREFETCH  REQUESTED:          0  ISSUED:          0  USEFUL:          0  USELESS:          0
ITLB USEFUL LOAD PREFETCHES:          0 PREFETCH ISSUED TO LOWER LEVEL:          0  ACCURACY: -nan
ITLB TIMELY PREFETCHES:          0 LATE PREFETCHES: 0 DROPPED PREFETCHES: 0
ITLB COMMIT LATE PREFETCHES: 0 NORMAL LATE: 0 MISSED OPPORTUNITY: 0 UNCOVERED: 0
ITLB PREFETCHES SAME FILL-ORIGIN LEVEL: 0 DIFFERENT FILL-ORIGIN LEVEL: 0
ITLB AVERAGE MISS LATENCY: -nan cycles
ITLB AVERAGE MISS LATENCY LOAD: -nan cycles
ITLB AVERAGE MISS LATENCY PREFETCH: -nan cycles
ITLB AVERAGE MSHR OCCUPANCY: 0
ITLB MSHR FULL: 0
ITLB RQ	ACCESS:   24828123	FORWARD:          0	MERGED:     664149	TO_CACHE:   24163974

DTLB SPEC fills:          0  NON-SPEC fills:          0
DTLB Test counter :          0
DTLB Leapfrog:          0
DTLB MSHR merge:          0
DTLB TOTAL     ACCESS:   48544033  HIT:   43869097  MISS:    4674936  HIT %:    90.3697  MISS %:     9.6303   MPKI: 23.3747
DTLB LOAD TRANSLATION NON_SPEC    ACCESS:   48544033  HIT:   43869097  MISS:    4674936  HIT %:    90.3697  MISS %:     9.6303   MPKI: 23.3747
DTLB PREFETCH  REQUESTED:          0  ISSUED:          0  USEFUL:          0  USELESS:          0
DTLB USEFUL LOAD PREFETCHES:          0 PREFETCH ISSUED TO LOWER LEVEL:          0  ACCURACY: -nan
DTLB TIMELY PREFETCHES:          0 LATE PREFETCHES: 0 DROPPED PREFETCHES: 0
DTLB COMMIT LATE PREFETCHES: 0 NORMAL LATE: 0 MISSED OPPORTUNITY: 0 UNCOVERED: 0
DTLB PREFETCHES SAME FILL-ORIGIN LEVEL: 0 DIFFERENT FILL-ORIGIN LEVEL: 0
DTLB AVERAGE MISS LATENCY: 12.2513 cycles
DTLB AVERAGE MISS LATENCY LOAD: -nan cycles
DTLB AVERAGE MISS LATENCY PREFETCH: -nan cycles
DTLB AVERAGE MSHR OCCUPANCY: 0.235488
DTLB MSHR FULL: 1.83895e-07
DTLB RQ	ACCESS:   52951315	FORWARD:          0	MERGED:    4010304	TO_CACHE:   48941011

STLB SPEC fills:          0  NON-SPEC fills:          0
STLB Test counter :          0
STLB Leapfrog:          0
STLB MSHR merge:          0
STLB TOTAL     ACCESS:   11213427  HIT:   11151851  MISS:      61576  HIT %:    99.4509  MISS %:   0.549127   MPKI: 0.30788
STLB LOAD TRANSLATION NON_SPEC    ACCESS:    4674936  HIT:    4615728  MISS:      59208  HIT %:    98.7335  MISS %:     1.2665   MPKI: 0.29604
STLB TRANSLATION FROM L1D PREFETCHER NON_SPEC    ACCESS:    6538491  HIT:    6536123  MISS:       2368  HIT %:    99.9638  MISS %:  0.0362163   MPKI: 0.01184
STLB PREFETCH  REQUESTED:          0  ISSUED:          0  USEFUL:       2256  USELESS:        112
STLB USEFUL LOAD PREFETCHES:       2256 PREFETCH ISSUED TO LOWER LEVEL:          0  ACCURACY: inf
STLB TIMELY PREFETCHES:       2256 LATE PREFETCHES: 10943 DROPPED PREFETCHES: 441456
STLB COMMIT LATE PREFETCHES: 0 NORMAL LATE: 0 MISSED OPPORTUNITY: 0 UNCOVERED: 0
STLB PREFETCHES SAME FILL-ORIGIN LEVEL: 0 DIFFERENT FILL-ORIGIN LEVEL: 0
STLB AVERAGE MISS LATENCY: 236.051 cycles
STLB AVERAGE MISS LATENCY LOAD: -nan cycles
STLB AVERAGE MISS LATENCY PREFETCH: -nan cycles
STLB AVERAGE MSHR OCCUPANCY: 0.0798262
STLB MSHR FULL: 0
STLB RQ	ACCESS:   39759870	FORWARD:          0	MERGED:   28000503	TO_CACHE:   11759367

STLB Hit, L1D data hit: 0
STLB Hit, L2C data hit: 0
STLB Hit, LLC data hit: 0
STLB Hit, LLC data miss: 0
STLB STLB hints to L2: 0
L0D SPEC fills:   26380659  NON-SPEC fills:          0
L0D TimeGuard Request with older TS:    2301626 Restricted eviction:     236136 read:    4321525
L0D Test counter :          0
L0D Leapfrog:          0
L0D MSHR merge:    2068942
L0D TOTAL     ACCESS:   48665602  HIT:   16990191  MISS:   31675411  HIT %:    34.9121  MISS %:    65.0879   MPKI: 158.377
L0D LOAD      TOTAL       ACCESS:   48665602  HIT:   16990191  MISS:   31675411  HIT %:    34.9121  MISS %:    65.0879   MPKI: 158.377
L0D LOAD      NON_SPEC    ACCESS:    5145171  HIT:      86555  MISS:    5058616  HIT %:    1.68226  MISS %:    98.3177   MPKI: 25.2931
L0D LOAD      SPEC        ACCESS:   43520431  HIT:   16903636  MISS:   26616795  HIT %:    38.8407  MISS %:    61.1593   MPKI: 133.084
L0D PREFETCH  REQUESTED:          0  ISSUED:          0  USEFUL:          0  USELESS:          0
L0D USEFUL LOAD PREFETCHES:          0 PREFETCH ISSUED TO LOWER LEVEL:          0  ACCURACY: -nan
L0D TIMELY PREFETCHES:          0 LATE PREFETCHES: 0 DROPPED PREFETCHES: 0
L0D COMMIT LATE PREFETCHES: 0 NORMAL LATE: 0 MISSED OPPORTUNITY: 0 UNCOVERED: 0
L0D PREFETCHES SAME FILL-ORIGIN LEVEL: 0 DIFFERENT FILL-ORIGIN LEVEL: 0
L0D AVERAGE MISS LATENCY: 29.8519 cycles
L0D AVERAGE MISS LATENCY LOAD: 29.8519 cycles
L0D AVERAGE MISS LATENCY PREFETCH: -nan cycles
L0D AVERAGE MSHR OCCUPANCY: 1.98511
L0D MSHR FULL: 0.0272288
L0D RQ	ACCESS:   76742299	FORWARD:          0	MERGED:   26007756	TO_CACHE:   50734543
L0D WQ	ACCESS:    2216772	FORWARD:          0	MERGED:          0	TO_CACHE:    2216772

L1D SPEC fills:          0  NON-SPEC fills:    1731316
L1D Test counter :    9190957
L1D Leapfrog:          0
L1D MSHR merge:      53455
L1D TOTAL     ACCESS:   94973132  HIT:   76530971  MISS:   18442161  HIT %:    80.5817  MISS %:    19.4183   MPKI: 92.2108
L1D LOAD      TOTAL       ACCESS:   31674399  HIT:   22434051  MISS:    9240348  HIT %:    70.8271  MISS %:    29.1729   MPKI: 46.2017
L1D LOAD      NON_SPEC    ACCESS:    5057972  HIT:    3326656  MISS:    1731316  HIT %:    65.7705  MISS %:    34.2295   MPKI: 8.65658
L1D LOAD      SPEC        ACCESS:   26616427  HIT:   19107395  MISS:    7509032  HIT %:     71.788  MISS %:     28.212   MPKI: 37.5452
L1D RFO       NON_SPEC    ACCESS:    2024002  HIT:    1551870  MISS:     472132  HIT %:    76.6733  MISS %:    23.3267   MPKI: 2.36066
L1D PREFETCH  NON_SPEC    ACCESS:   18538738  HIT:   17307829  MISS:    1230909  HIT %:    93.3603  MISS %:    6.63966   MPKI: 6.15454
L1D COMMIT LOAD NON_SPEC    ACCESS:   18547380  HIT:   18428265  MISS:     119115  HIT %:    99.3578  MISS %:    0.64222   MPKI: 0.595575
L1D COMMIT WRITE NON_SPEC    ACCESS:   24188613  HIT:   16808956  MISS:    7379657  HIT %:    69.4912  MISS %:    30.5088   MPKI: 36.8983
L1D PREFETCH  REQUESTED:   78742195  ISSUED:   76706664  USEFUL:    1152444  USELESS:      78465
L1D USEFUL LOAD PREFETCHES:    1152444 PREFETCH ISSUED TO LOWER LEVEL:   15723483  ACCURACY: 7.32944
L1D TIMELY PREFETCHES:    1152444 LATE PREFETCHES: 57960 DROPPED PREFETCHES: 1317759
L1D COMMIT LATE PREFETCHES: 94605 NORMAL LATE: 44741 MISSED OPPORTUNITY: 19825 UNCOVERED: 9087405
L1D PREFETCHES SAME FILL-ORIGIN LEVEL: 1288869 DIFFERENT FILL-ORIGIN LEVEL: 14434614
L1D AVERAGE MISS LATENCY: 50.5997 cycles
L1D AVERAGE MISS LATENCY LOAD: 84.7294 cycles
L1D AVERAGE MISS LATENCY PREFETCH: 77.7584 cycles
L1D AVERAGE MSHR OCCUPANCY: 1.9017
L1D MSHR FULL: 0.0405617
L1D RQ	ACCESS:   78949359	FORWARD:          0	MERGED:   23521536	TO_CACHE:   50224076
L1D WQ	ACCESS:   26435842	FORWARD:    5203747	MERGED:      32227	TO_CACHE:   26403615
L1D PQ	ACCESS:   76706664	FORWARD:          0	MERGED:   41621730	TO_CACHE:   35084934

L1D UNIQUE REGIONS ACCESSED: 0
L1D REGIONS CONFLICTS: 0
L1D Cross Page Prefetch Requests: 7467839
L1D Same Page Prefetch Requests: 86251901
L1D ROI Sum of L1D PQ occupancy: 715721745
L1D PREFETCHES PUSHED FROM L2C: 0
L1I SPEC fills:          0  NON-SPEC fills:          0
L1I Test counter :          0
L1I Leapfrog:          0
L1I MSHR merge:          0
L1I TOTAL     ACCESS:   24828123  HIT:   24828123  MISS:          0  HIT %:        100  MISS %:          0   MPKI: 0
L1I LOAD      TOTAL       ACCESS:   24828123  HIT:   24828123  MISS:          0  HIT %:        100  MISS %:          0   MPKI: 0
L1I LOAD      NON_SPEC    ACCESS:   24828123  HIT:   24828123  MISS:          0  HIT %:        100  MISS %:          0   MPKI: 0
L1I PREFETCH  REQUESTED:          0  ISSUED:          0  USEFUL:          0  USELESS:          0
L1I USEFUL LOAD PREFETCHES:          0 PREFETCH ISSUED TO LOWER LEVEL:          0  ACCURACY: -nan
L1I TIMELY PREFETCHES:          0 LATE PREFETCHES: 0 DROPPED PREFETCHES: 0
L1I COMMIT LATE PREFETCHES: 0 NORMAL LATE: 0 MISSED OPPORTUNITY: 0 UNCOVERED: 0
L1I PREFETCHES SAME FILL-ORIGIN LEVEL: 0 DIFFERENT FILL-ORIGIN LEVEL: 0
L1I AVERAGE MISS LATENCY: -nan cycles
L1I AVERAGE MISS LATENCY LOAD: -nan cycles
L1I AVERAGE MISS LATENCY PREFETCH: -nan cycles
L1I AVERAGE MSHR OCCUPANCY: 0
L1I MSHR FULL: 0
L1I RQ	ACCESS:   38854106	FORWARD:          0	MERGED:   14025983	TO_CACHE:   24828123

BTB SPEC fills:          0  NON-SPEC fills:          0
BTB Test counter :          0
BTB Leapfrog:          0
BTB MSHR merge:          0
BTB TOTAL     ACCESS:   29056031  HIT:   29055886  MISS:        145  HIT %:    99.9995  MISS %: 0.000499036   MPKI: 0.000725
BTB BRANCH_DIRECT_JUMP	ACCESS:    9225403  HIT:    9225362  MISS:         41
BTB BRANCH_INDIRECT	ACCESS:          0  HIT:          0  MISS:          0
BTB BRANCH_CONDITIONAL	ACCESS:   19828000  HIT:   19827919  MISS:         81
BTB BRANCH_DIRECT_CALL	ACCESS:       1314  HIT:       1305  MISS:          9
BTB BRANCH_INDIRECT_CALL	ACCESS:          0  HIT:          0  MISS:          0
BTB BRANCH_RETURN	ACCESS:       1314  HIT:       1300  MISS:         14
BTB BRANCH_OTHER ACCESS:          0  HIT:          0  MISS:          0

L2C SPEC fills:          0  NON-SPEC fills:    1117244
L2C Test counter :          0
L2C Leapfrog:          0
L2C MSHR merge:      86209
L2C TOTAL     ACCESS:   35412341  HIT:   20394207  MISS:   15018134  HIT %:    57.5907  MISS %:    42.4093   MPKI: 75.0907
L2C LOAD      TOTAL       ACCESS:    9187864  HIT:    2514557  MISS:    6673307  HIT %:    27.3682  MISS %:    72.6318   MPKI: 33.3665
L2C LOAD      NON_SPEC    ACCESS:    1729676  HIT:     612432  MISS:    1117244  HIT %:    35.4073  MISS %:    64.5927   MPKI: 5.58622
L2C LOAD      SPEC        ACCESS:    7458188  HIT:    1902125  MISS:    5556063  HIT %:    25.5038  MISS %:    74.4962   MPKI: 27.7803
L2C RFO       NON_SPEC    ACCESS:     472130  HIT:     292687  MISS:     179443  HIT %:    61.9929  MISS %:    38.0071   MPKI: 0.897215
L2C PREFETCH  NON_SPEC    ACCESS:   13719156  HIT:   11236658  MISS:    2482498  HIT %:    81.9049  MISS %:    18.0951   MPKI: 12.4125
L2C WRITEBACK NON_SPEC    ACCESS:     809658  HIT:     806280  MISS:       3378  HIT %:    99.5828  MISS %:   0.417213   MPKI: 0.01689
L2C CLEAN_EVICTION NON_SPEC    ACCESS:    8543033  HIT:    2975398  MISS:    5567635  HIT %:    34.8284  MISS %:    65.1716   MPKI: 27.8382
L2C COMMIT LOAD NON_SPEC    ACCESS:     113584  HIT:      47951  MISS:      65633  HIT %:    42.2163  MISS %:    57.7837   MPKI: 0.328165
L2C LOAD TRANSLATION NON_SPEC    ACCESS:     293081  HIT:     250382  MISS:      42699  HIT %:     85.431  MISS %:     14.569   MPKI: 0.213495
L2C TRANSLATION FROM L1D PREFETCHER NON_SPEC    ACCESS:    2273835  HIT:    2270294  MISS:       3541  HIT %:    99.8443  MISS %:   0.155728   MPKI: 0.017705
L2C PREFETCH  REQUESTED:          0  ISSUED:          0  USEFUL:     201820  USELESS:    2286134
L2C USEFUL LOAD PREFETCHES:     201820 PREFETCH ISSUED TO LOWER LEVEL:    2569915  ACCURACY: 7.85318
L2C TIMELY PREFETCHES:     201820 LATE PREFETCHES: 87417 DROPPED PREFETCHES: 0
L2C COMMIT LATE PREFETCHES: 0 NORMAL LATE: 87818 MISSED OPPORTUNITY: 0 UNCOVERED: 6586699
L2C PREFETCHES SAME FILL-ORIGIN LEVEL: 2223165 DIFFERENT FILL-ORIGIN LEVEL: 0
L2C AVERAGE MISS LATENCY: 84.8892 cycles
L2C AVERAGE MISS LATENCY LOAD: 98.2299 cycles
L2C AVERAGE MISS LATENCY PREFETCH: 227.848 cycles
L2C AVERAGE MSHR OCCUPANCY: 2.40259
L2C MSHR FULL: 3.60588e-05
L2C RQ	ACCESS:   12340553	FORWARD:          0	MERGED:          0	TO_CACHE:   12340496
L2C WQ	ACCESS:    9352713	FORWARD:         57	MERGED:         21	TO_CACHE:    9352692
L2C PQ	ACCESS:   15723479	FORWARD:          0	MERGED:       4769	TO_CACHE:   15718710

L2C Instructions Evicting Data 0
L2C Translations Evicting Data 45958
L2C Data Evicting Data 3827750
L2C Instructions Evicting Instructions 0
L2C Translations Evicting Instructions 0
L2C Data Evicting Instructions 0
L2C Instructions Evicting Translations 0
L2C Translations Evicting Translations 282
L2C Data Evicting Translations 17096
L2C Dense regions hint from L2: 0
PSCL5 SPEC fills:          0  NON-SPEC fills:          0
PSCL5 Test counter :          0
PSCL5 Leapfrog:          0
PSCL5 MSHR merge:          0
PSCL5 TOTAL     ACCESS:          0  HIT:          0  MISS:          0  HIT %:       -nan  MISS %:       -nan   MPKI: 0
PSCL5 PREFETCH  REQUESTED:          0  ISSUED:          0  USEFUL:          0  USELESS:          0
PSCL5 USEFUL LOAD PREFETCHES:          0 PREFETCH ISSUED TO LOWER LEVEL:          0  ACCURACY: -nan
PSCL5 TIMELY PREFETCHES:          0 LATE PREFETCHES: 0 DROPPED PREFETCHES: 0
PSCL5 COMMIT LATE PREFETCHES: 0 NORMAL LATE: 0 MISSED OPPORTUNITY: 0 UNCOVERED: 0
PSCL5 PREFETCHES SAME FILL-ORIGIN LEVEL: 0 DIFFERENT FILL-ORIGIN LEVEL: 0

PSCL4 SPEC fills:          0  NON-SPEC fills:          0
PSCL4 Test counter :          0
PSCL4 Leapfrog:          0
PSCL4 MSHR merge:          0
PSCL4 TOTAL     ACCESS:          0  HIT:          0  MISS:          0  HIT %:       -nan  MISS %:       -nan   MPKI: 0
PSCL4 PREFETCH  REQUESTED:          0  ISSUED:          0  USEFUL:          0  USELESS:          0
PSCL4 USEFUL LOAD PREFETCHES:          0 PREFETCH ISSUED TO LOWER LEVEL:          0  ACCURACY: -nan
PSCL4 TIMELY PREFETCHES:          0 LATE PREFETCHES: 0 DROPPED PREFETCHES: 0
PSCL4 COMMIT LATE PREFETCHES: 0 NORMAL LATE: 0 MISSED OPPORTUNITY: 0 UNCOVERED: 0
PSCL4 PREFETCHES SAME FILL-ORIGIN LEVEL: 0 DIFFERENT FILL-ORIGIN LEVEL: 0

PSCL3 SPEC fills:          0  NON-SPEC fills:          0
PSCL3 Test counter :          0
PSCL3 Leapfrog:          0
PSCL3 MSHR merge:          0
PSCL3 TOTAL     ACCESS:          0  HIT:          0  MISS:          0  HIT %:       -nan  MISS %:       -nan   MPKI: 0
PSCL3 PREFETCH  REQUESTED:          0  ISSUED:          0  USEFUL:          0  USELESS:          0
PSCL3 USEFUL LOAD PREFETCHES:          0 PREFETCH ISSUED TO LOWER LEVEL:          0  ACCURACY: -nan
PSCL3 TIMELY PREFETCHES:          0 LATE PREFETCHES: 0 DROPPED PREFETCHES: 0
PSCL3 COMMIT LATE PREFETCHES: 0 NORMAL LATE: 0 MISSED OPPORTUNITY: 0 UNCOVERED: 0
PSCL3 PREFETCHES SAME FILL-ORIGIN LEVEL: 0 DIFFERENT FILL-ORIGIN LEVEL: 0

PSCL2 SPEC fills:          0  NON-SPEC fills:          0
PSCL2 Test counter :          0
PSCL2 Leapfrog:          0
PSCL2 MSHR merge:          0
PSCL2 TOTAL     ACCESS:          0  HIT:          0  MISS:          0  HIT %:       -nan  MISS %:       -nan   MPKI: 0
PSCL2 PREFETCH  REQUESTED:          0  ISSUED:          0  USEFUL:          0  USELESS:          0
PSCL2 USEFUL LOAD PREFETCHES:          0 PREFETCH ISSUED TO LOWER LEVEL:          0  ACCURACY: -nan
PSCL2 TIMELY PREFETCHES:          0 LATE PREFETCHES: 0 DROPPED PREFETCHES: 0
PSCL2 COMMIT LATE PREFETCHES: 0 NORMAL LATE: 0 MISSED OPPORTUNITY: 0 UNCOVERED: 0
PSCL2 PREFETCHES SAME FILL-ORIGIN LEVEL: 0 DIFFERENT FILL-ORIGIN LEVEL: 0

LLC SPEC fills:          0  NON-SPEC fills:     461820
LLC Test counter :          0
LLC Leapfrog:          0
LLC MSHR merge:          0
LLC TOTAL     ACCESS:   16821841  HIT:    8916438  MISS:    7905403  HIT %:    53.0051  MISS %:    46.9949   MPKI: 39.527
LLC LOAD      TOTAL       ACCESS:    6587049  HIT:    3778807  MISS:    2808242  HIT %:    57.3672  MISS %:    42.6328   MPKI: 14.0412
LLC LOAD      NON_SPEC    ACCESS:    1104540  HIT:     642720  MISS:     461820  HIT %:    58.1889  MISS %:    41.8111   MPKI: 2.3091
LLC LOAD      SPEC        ACCESS:    5482509  HIT:    3136087  MISS:    2346422  HIT %:    57.2017  MISS %:    42.7983   MPKI: 11.7321
LLC RFO       NON_SPEC    ACCESS:     179442  HIT:      73424  MISS:     106018  HIT %:     40.918  MISS %:     59.082   MPKI: 0.53009
LLC PREFETCH  NON_SPEC    ACCESS:    2569910  HIT:     334310  MISS:    2235600  HIT %:    13.0086  MISS %:    86.9914   MPKI: 11.178
LLC WRITEBACK NON_SPEC    ACCESS:     313191  HIT:     305518  MISS:       7673  HIT %:    97.5501  MISS %:    2.44994   MPKI: 0.038365
LLC CLEAN_EVICTION NON_SPEC    ACCESS:    7061606  HIT:    4358794  MISS:    2702812  HIT %:    61.7253  MISS %:    38.2747   MPKI: 13.5141
LLC COMMIT LOAD NON_SPEC    ACCESS:      64403  HIT:      54838  MISS:       9565  HIT %:    85.1482  MISS %:    14.8518   MPKI: 0.047825
LLC LOAD TRANSLATION NON_SPEC    ACCESS:      42699  HIT:      10510  MISS:      32189  HIT %:    24.6142  MISS %:    75.3858   MPKI: 0.160945
LLC TRANSLATION FROM L1D PREFETCHER NON_SPEC    ACCESS:       3541  HIT:        237  MISS:       3304  HIT %:    6.69302  MISS %:     93.307   MPKI: 0.01652
LLC PREFETCH  REQUESTED:          0  ISSUED:          0  USEFUL:     166409  USELESS:    2074027
LLC USEFUL LOAD PREFETCHES:     166409 PREFETCH ISSUED TO LOWER LEVEL:    2235600  ACCURACY: 7.44359
LLC TIMELY PREFETCHES:     166409 LATE PREFETCHES: 0 DROPPED PREFETCHES: 0
LLC COMMIT LATE PREFETCHES: 0 NORMAL LATE: 0 MISSED OPPORTUNITY: 0 UNCOVERED: 0
LLC PREFETCHES SAME FILL-ORIGIN LEVEL: 0 DIFFERENT FILL-ORIGIN LEVEL: 0
LLC AVERAGE MISS LATENCY: 132.87 cycles
LLC AVERAGE MISS LATENCY LOAD: 173.066 cycles
LLC AVERAGE MISS LATENCY PREFETCH: 232.441 cycles
LLC AVERAGE MSHR OCCUPANCY: 1.88462
LLC MSHR FULL: 0
LLC RQ	ACCESS:    6877208	FORWARD:          0	MERGED:          0	TO_CACHE:    6877136
LLC WQ	ACCESS:    7374798	FORWARD:         77	MERGED:          0	TO_CACHE:    7374798
LLC PQ	ACCESS:    2569915	FORWARD:          0	MERGED:          0	TO_CACHE:    2569910

LLC Dense regions hint to LLC: 0

RAW hits: 63420
Loads Generated: 76805719
Loads sent to L1D: 76742299
Stores Generated: 2216772
Stores sent to L1D: 2216772
Major fault: 0 Minor fault: 37080
Allocated PAGES: 37080
Total Load insts: 93563062
Total Non-spec loads: 6297620
Percentage of speculative loads: 93.2691

LeapFrogging counter: 675546
Commit hits: 24219094 miss: 47273949
Commit hit %: 33.8762 miss %: 66.1238
Commits not translated: 0
Loads retired: 9240347
Stores retired: 2216772
Cache fills: 9240348
L1D response latency: 84.7294 cycles
Load retirement latency: 170.54 cycles
OOO test counter: 0
Discarded buffer inserts: 24219094 hits: 22748 hit %: 0.0939259
Filter prediction accuracy: -nan
ALL MISSES SIZE: 15287
LATENCY_FILL: 84.145 9228966
LATENCY_FILL_ROB: 158.682 9232523
test counter pref: 147689011
Max ROB Extended: 22
test counter pref: 116861953

DRAM Statistics
 CHANNEL 0
 RQ ROW_BUFFER_HIT:     822383  ROW_BUFFER_MISS:    4370803
 DBUS_CONGESTED:       2816
 WQ ROW_BUFFER_HIT:    1663019  ROW_BUFFER_MISS:    2779992  FULL:      18562

 AVG_CONGESTED_CYCLE: 5
 All warmup complete: 2
Channel 0 Bank busy for read cycles: 0
Channel 0 Bank busy for write cycles: 0
Channel 0
Rank 0
0banks busy for read cycles: 4679030
0banks busy for write cycles: 21186
1banks busy for read cycles: 143869217
1banks busy for write cycles: 4754789
2banks busy for read cycles: 97276982
2banks busy for write cycles: 5826742
3banks busy for read cycles: 49948621
3banks busy for write cycles: 6874353
4banks busy for read cycles: 20539827
4banks busy for write cycles: 8337239
5banks busy for read cycles: 8338804
5banks busy for write cycles: 10723642
6banks busy for read cycles: 4565621
6banks busy for write cycles: 16119173
7banks busy for read cycles: 4387718
7banks busy for write cycles: 33539941
8banks busy for read cycles: 4502634
8banks busy for write cycles: 77538439

CPU 0 Branch Prediction Accuracy: 97.7909% MPKI: 3.2859 Average ROB Occupancy at Mispredict: 162.095
Branch types
NOT_BRANCH: 170250761 85.1254%
BRANCH_DIRECT_JUMP: 9225403 4.6127%
BRANCH_INDIRECT: 0 0%
BRANCH_CONDITIONAL: 20520883 10.2604%
BRANCH_DIRECT_CALL: 1314 0.000657%
BRANCH_INDIRECT_CALL: 0 0%
BRANCH_RETURN: 1314 0.000657%
BRANCH_OTHER: 0 0%

DRAM PAGES: 1048576
Allocated PAGES: 37080
