
*** ChampSim Multicore Out-of-Order Simulator ***

Warmup Instructions: 50000000
Simulation Instructions: 200000000
Number of CPUs: 1
LLC sets: 2048
LLC ways: 16
L0D sets: 16
L0D ways: 2
ROB size: 352
LQ size: 128
SQ size: 72
Secure Berti: ON
Berti: ON
Berti Fill: ON
On commit prefetching: OFF
Hit-based filter: OFF
Time-guarding: ON
Free-slotting: ON
Leap-frogging: ON
Train prefetcher on L0D bypass: OFF
No translation penalty for prefetchers: OFF
Prefetch to L0D only: OFF
Prefetch to L1D only: OFF
Clean evictions: ON
Commit loads: ON
Commit write: ON
Fill commit loads to L2C, LLC: ON
DRAM IO FREQUENCY: 6400
ROB SIZE: 352
Off-chip DRAM Size: 4096 MB Channels: 1 Width: 64-bit Data Rate: 6400 MT/s
CPU 0 runs /home/sumon/secure_berti/GhostMinion/../../traces/gap/sssp-5.trace.gz
.gz
BTB has LRU replacement policy
ITLB has LRU replacement policy
DTLB has LRU replacement policy
STLB has LRU replacement policy
L1I has LRU replacement policy
L0D has LRU replacement policy
Berti version on_commit
History Sets: 8
History Ways: 16
BERTI Size: 16
BERTI Stride Size: 16
History Sets: 8
History Ways: 16
BERTI Size: 16
BERTI Stride Size: 16
L1D has LRU replacement policy
L2C has LRU replacement policy
LLC has LRU replacement policy
Heartbeat CPU 0 instructions: 10000001 cycles: 3956788 heartbeat IPC: 2.5273 cumulative IPC: 2.5273 (Simulation time: 0 hr 1 min 28 sec) 
Heartbeat CPU 0 instructions: 20000000 cycles: 7787455 heartbeat IPC: 2.61051 cumulative IPC: 2.56823 (Simulation time: 0 hr 3 min 7 sec) 
Heartbeat CPU 0 instructions: 30000003 cycles: 11575700 heartbeat IPC: 2.63975 cumulative IPC: 2.59164 (Simulation time: 0 hr 4 min 46 sec) 
Heartbeat CPU 0 instructions: 40000000 cycles: 15337231 heartbeat IPC: 2.65849 cumulative IPC: 2.60803 (Simulation time: 0 hr 6 min 26 sec) 
Heartbeat CPU 0 instructions: 50000003 cycles: 19083325 heartbeat IPC: 2.66945 cumulative IPC: 2.62009 (Simulation time: 0 hr 8 min 5 sec) 

Warmup complete CPU 0 instructions: 50000003 cycles: 19083325 (Simulation time: 0 hr 8 min 5 sec) 

Heartbeat CPU 0 instructions: 60000002 cycles: 47307599 heartbeat IPC: 0.354305 cumulative IPC: 0.354305 (Simulation time: 0 hr 10 min 19 sec) 
Heartbeat CPU 0 instructions: 70000001 cycles: 75207563 heartbeat IPC: 0.358423 cumulative IPC: 0.356352 (Simulation time: 0 hr 12 min 35 sec) 
Heartbeat CPU 0 instructions: 80000000 cycles: 101315120 heartbeat IPC: 0.383031 cumulative IPC: 0.364822 (Simulation time: 0 hr 14 min 51 sec) 
Heartbeat CPU 0 instructions: 90000001 cycles: 128411285 heartbeat IPC: 0.369056 cumulative IPC: 0.365872 (Simulation time: 0 hr 17 min 10 sec) 
Heartbeat CPU 0 instructions: 100000000 cycles: 155202394 heartbeat IPC: 0.373258 cumulative IPC: 0.367325 (Simulation time: 0 hr 19 min 28 sec) 
Heartbeat CPU 0 instructions: 110000000 cycles: 180831526 heartbeat IPC: 0.390181 cumulative IPC: 0.370947 (Simulation time: 0 hr 21 min 44 sec) 
Heartbeat CPU 0 instructions: 120000000 cycles: 205763379 heartbeat IPC: 0.401093 cumulative IPC: 0.374973 (Simulation time: 0 hr 24 min 0 sec) 
Heartbeat CPU 0 instructions: 130000000 cycles: 232005597 heartbeat IPC: 0.381065 cumulative IPC: 0.375724 (Simulation time: 0 hr 26 min 20 sec) 
Heartbeat CPU 0 instructions: 140000000 cycles: 257238992 heartbeat IPC: 0.3963 cumulative IPC: 0.377904 (Simulation time: 0 hr 28 min 39 sec) 
Heartbeat CPU 0 instructions: 150000000 cycles: 281815817 heartbeat IPC: 0.406887 cumulative IPC: 0.380615 (Simulation time: 0 hr 30 min 57 sec) 
Heartbeat CPU 0 instructions: 160000000 cycles: 306046570 heartbeat IPC: 0.412699 cumulative IPC: 0.383324 (Simulation time: 0 hr 33 min 15 sec) 
Heartbeat CPU 0 instructions: 170000002 cycles: 330248925 heartbeat IPC: 0.413183 cumulative IPC: 0.385647 (Simulation time: 0 hr 35 min 32 sec) 
Heartbeat CPU 0 instructions: 180000000 cycles: 354649107 heartbeat IPC: 0.409833 cumulative IPC: 0.387405 (Simulation time: 0 hr 37 min 51 sec) 
Heartbeat CPU 0 instructions: 190000001 cycles: 379650409 heartbeat IPC: 0.399979 cumulative IPC: 0.388277 (Simulation time: 0 hr 40 min 12 sec) 
Heartbeat CPU 0 instructions: 200000001 cycles: 403641383 heartbeat IPC: 0.416823 cumulative IPC: 0.390058 (Simulation time: 0 hr 42 min 31 sec) 
Heartbeat CPU 0 instructions: 210000000 cycles: 427244361 heartbeat IPC: 0.423675 cumulative IPC: 0.392002 (Simulation time: 0 hr 44 min 50 sec) 
Heartbeat CPU 0 instructions: 220000000 cycles: 451140208 heartbeat IPC: 0.418483 cumulative IPC: 0.393467 (Simulation time: 0 hr 47 min 12 sec) 
Heartbeat CPU 0 instructions: 230000002 cycles: 474383275 heartbeat IPC: 0.430236 cumulative IPC: 0.395344 (Simulation time: 0 hr 49 min 32 sec) 
Heartbeat CPU 0 instructions: 240000002 cycles: 498023137 heartbeat IPC: 0.423014 cumulative IPC: 0.39671 (Simulation time: 0 hr 51 min 52 sec) 
Heartbeat CPU 0 instructions: 250000000 cycles: 521262713 heartbeat IPC: 0.4303 cumulative IPC: 0.398264 (Simulation time: 0 hr 54 min 12 sec) 
Finished CPU 0 instructions: 200000001 cycles: 502179389 cumulative IPC: 0.398264 (Simulation time: 0 hr 54 min 12 sec) 
 Instruction ID: 250000379

ChampSim completed all CPUs

Region of Interest Statistics

CPU 0 cumulative IPC: 0.398264 instructions: 200000001 cycles: 502179389
ITLB SPEC fills:          0  NON-SPEC fills:          0
ITLB Test counter :          0
ITLB Leapfrog:          0
ITLB MSHR merge:          0
ITLB TOTAL     ACCESS:   24180534  HIT:   24180534  MISS:          0  HIT %:        100  MISS %:          0   MPKI: 0
ITLB LOAD TRANSLATION NON_SPEC    ACCESS:   24180534  HIT:   24180534  MISS:          0  HIT %:        100  MISS %:          0   MPKI: 0
ITLB PREFETCH  REQUESTED:          0  ISSUED:          0  USEFUL:          0  USELESS:          0
ITLB USEFUL LOAD PREFETCHES:          0 PREFETCH ISSUED TO LOWER LEVEL:          0  ACCURACY: -nan
ITLB TIMELY PREFETCHES:          0 LATE PREFETCHES: 0 DROPPED PREFETCHES: 0
ITLB COMMIT LATE PREFETCHES: 0 NORMAL LATE: 0 MISSED OPPORTUNITY: 0 UNCOVERED: 0
ITLB PREFETCHES SAME FILL-ORIGIN LEVEL: 0 DIFFERENT FILL-ORIGIN LEVEL: 0
ITLB AVERAGE MISS LATENCY: -nan cycles
ITLB AVERAGE MISS LATENCY LOAD: -nan cycles
ITLB AVERAGE MISS LATENCY PREFETCH: -nan cycles
ITLB AVERAGE MSHR OCCUPANCY: 0
ITLB MSHR FULL: 0
ITLB RQ	ACCESS:   24853476	FORWARD:          0	MERGED:     672942	TO_CACHE:   24180534

DTLB SPEC fills:          0  NON-SPEC fills:          0
DTLB Test counter :          0
DTLB Leapfrog:          0
DTLB MSHR merge:          0
DTLB TOTAL     ACCESS:   48552766  HIT:   44030919  MISS:    4521847  HIT %:    90.6867  MISS %:    9.31326   MPKI: 22.6092
DTLB LOAD TRANSLATION NON_SPEC    ACCESS:   48552766  HIT:   44030919  MISS:    4521847  HIT %:    90.6867  MISS %:    9.31326   MPKI: 22.6092
DTLB PREFETCH  REQUESTED:          0  ISSUED:          0  USEFUL:          0  USELESS:          0
DTLB USEFUL LOAD PREFETCHES:          0 PREFETCH ISSUED TO LOWER LEVEL:          0  ACCURACY: -nan
DTLB TIMELY PREFETCHES:          0 LATE PREFETCHES: 0 DROPPED PREFETCHES: 0
DTLB COMMIT LATE PREFETCHES: 0 NORMAL LATE: 0 MISSED OPPORTUNITY: 0 UNCOVERED: 0
DTLB PREFETCHES SAME FILL-ORIGIN LEVEL: 0 DIFFERENT FILL-ORIGIN LEVEL: 0
DTLB AVERAGE MISS LATENCY: 12.274 cycles
DTLB AVERAGE MISS LATENCY LOAD: -nan cycles
DTLB AVERAGE MISS LATENCY PREFETCH: -nan cycles
DTLB AVERAGE MSHR OCCUPANCY: 0.228838
DTLB MSHR FULL: 1.22577e-07
DTLB RQ	ACCESS:   52988830	FORWARD:          0	MERGED:    4040166	TO_CACHE:   48948664

STLB SPEC fills:          0  NON-SPEC fills:          0
STLB Test counter :          0
STLB Leapfrog:          0
STLB MSHR merge:          0
STLB TOTAL     ACCESS:   11144986  HIT:   11085172  MISS:      59814  HIT %:    99.4633  MISS %:    0.53669   MPKI: 0.29907
STLB LOAD TRANSLATION NON_SPEC    ACCESS:    4521847  HIT:    4464378  MISS:      57469  HIT %:    98.7291  MISS %:    1.27092   MPKI: 0.287345
STLB TRANSLATION FROM L1D PREFETCHER NON_SPEC    ACCESS:    6623139  HIT:    6620794  MISS:       2345  HIT %:    99.9646  MISS %:  0.0354062   MPKI: 0.011725
STLB PREFETCH  REQUESTED:          0  ISSUED:          0  USEFUL:       2195  USELESS:        152
STLB USEFUL LOAD PREFETCHES:       2195 PREFETCH ISSUED TO LOWER LEVEL:          0  ACCURACY: inf
STLB TIMELY PREFETCHES:       2195 LATE PREFETCHES: 11024 DROPPED PREFETCHES: 438507
STLB COMMIT LATE PREFETCHES: 0 NORMAL LATE: 0 MISSED OPPORTUNITY: 0 UNCOVERED: 0
STLB PREFETCHES SAME FILL-ORIGIN LEVEL: 0 DIFFERENT FILL-ORIGIN LEVEL: 0
STLB AVERAGE MISS LATENCY: 237.807 cycles
STLB AVERAGE MISS LATENCY LOAD: -nan cycles
STLB AVERAGE MISS LATENCY PREFETCH: -nan cycles
STLB AVERAGE MSHR OCCUPANCY: 0.0776748
STLB MSHR FULL: 0
STLB RQ	ACCESS:   40007605	FORWARD:          0	MERGED:   28320939	TO_CACHE:   11686666

STLB Hit, L1D data hit: 0
STLB Hit, L2C data hit: 0
STLB Hit, LLC data hit: 0
STLB Hit, LLC data miss: 0
STLB STLB hints to L2: 0
L0D SPEC fills:   26368821  NON-SPEC fills:          0
L0D TimeGuard Request with older TS:    2290413 Restricted eviction:     233730 read:    4320811
L0D Test counter :          0
L0D Leapfrog:          0
L0D MSHR merge:    2059717
L0D TOTAL     ACCESS:   48687763  HIT:   16976615  MISS:   31711148  HIT %:    34.8683  MISS %:    65.1317   MPKI: 158.556
L0D LOAD      TOTAL       ACCESS:   48687763  HIT:   16976615  MISS:   31711148  HIT %:    34.8683  MISS %:    65.1317   MPKI: 158.556
L0D LOAD      NON_SPEC    ACCESS:    5189957  HIT:      81360  MISS:    5108597  HIT %:    1.56764  MISS %:    98.4324   MPKI: 25.543
L0D LOAD      SPEC        ACCESS:   43497806  HIT:   16895255  MISS:   26602551  HIT %:    38.8416  MISS %:    61.1584   MPKI: 133.013
L0D PREFETCH  REQUESTED:          0  ISSUED:          0  USEFUL:          0  USELESS:          0
L0D USEFUL LOAD PREFETCHES:          0 PREFETCH ISSUED TO LOWER LEVEL:          0  ACCURACY: -nan
L0D TIMELY PREFETCHES:          0 LATE PREFETCHES: 0 DROPPED PREFETCHES: 0
L0D COMMIT LATE PREFETCHES: 0 NORMAL LATE: 0 MISSED OPPORTUNITY: 0 UNCOVERED: 0
L0D PREFETCHES SAME FILL-ORIGIN LEVEL: 0 DIFFERENT FILL-ORIGIN LEVEL: 0
L0D AVERAGE MISS LATENCY: 29.8731 cycles
L0D AVERAGE MISS LATENCY LOAD: 29.8731 cycles
L0D AVERAGE MISS LATENCY PREFETCH: -nan cycles
L0D AVERAGE MSHR OCCUPANCY: 1.98331
L0D MSHR FULL: 0.0270195
L0D RQ	ACCESS:   76703632	FORWARD:          0	MERGED:   25956154	TO_CACHE:   50747478
L0D WQ	ACCESS:    2241352	FORWARD:          0	MERGED:          0	TO_CACHE:    2241352

L1D SPEC fills:          0  NON-SPEC fills:    1729780
L1D Test counter :    9159543
L1D Leapfrog:          0
L1D MSHR merge:      53435
L1D TOTAL     ACCESS:   95358464  HIT:   76973911  MISS:   18384553  HIT %:    80.7206  MISS %:    19.2794   MPKI: 91.9228
L1D LOAD      TOTAL       ACCESS:   31710099  HIT:   22501649  MISS:    9208450  HIT %:    70.9605  MISS %:    29.0395   MPKI: 46.0422
L1D LOAD      NON_SPEC    ACCESS:    5107913  HIT:    3378133  MISS:    1729780  HIT %:    66.1353  MISS %:    33.8647   MPKI: 8.6489
L1D LOAD      SPEC        ACCESS:   26602186  HIT:   19123516  MISS:    7478670  HIT %:     71.887  MISS %:     28.113   MPKI: 37.3933
L1D RFO       NON_SPEC    ACCESS:    2048738  HIT:    1574388  MISS:     474350  HIT %:    76.8467  MISS %:    23.1533   MPKI: 2.37175
L1D PREFETCH  NON_SPEC    ACCESS:   18885616  HIT:   17651904  MISS:    1233712  HIT %:    93.4675  MISS %:    6.53255   MPKI: 6.16856
L1D COMMIT LOAD NON_SPEC    ACCESS:   18526094  HIT:   18408581  MISS:     117513  HIT %:    99.3657  MISS %:   0.634311   MPKI: 0.587565
L1D COMMIT WRITE NON_SPEC    ACCESS:   24187917  HIT:   16837389  MISS:    7350528  HIT %:    69.6107  MISS %:    30.3893   MPKI: 36.7526
L1D PREFETCH  REQUESTED:   79246055  ISSUED:   77259285  USEFUL:    1154774  USELESS:      78961
L1D USEFUL LOAD PREFETCHES:    1154774 PREFETCH ISSUED TO LOWER LEVEL:   15776705  ACCURACY: 7.31949
L1D TIMELY PREFETCHES:    1154774 LATE PREFETCHES: 57945 DROPPED PREFETCHES: 1319186
L1D COMMIT LATE PREFETCHES: 94458 NORMAL LATE: 46165 MISSED OPPORTUNITY: 21127 UNCOVERED: 9052911
L1D PREFETCHES SAME FILL-ORIGIN LEVEL: 1291658 DIFFERENT FILL-ORIGIN LEVEL: 14485047
L1D AVERAGE MISS LATENCY: 50.773 cycles
L1D AVERAGE MISS LATENCY LOAD: 85.1931 cycles
L1D AVERAGE MISS LATENCY PREFETCH: 76.1486 cycles
L1D AVERAGE MSHR OCCUPANCY: 1.89865
L1D MSHR FULL: 0.0406203
L1D RQ	ACCESS:   78902976	FORWARD:          0	MERGED:   23460730	TO_CACHE:   50238467
L1D WQ	ACCESS:   26459567	FORWARD:    5203779	MERGED:      32096	TO_CACHE:   26427471
L1D PQ	ACCESS:   77259285	FORWARD:          0	MERGED:   41773527	TO_CACHE:   35485758

L1D UNIQUE REGIONS ACCESSED: 0
L1D REGIONS CONFLICTS: 0
L1D Cross Page Prefetch Requests: 7323785
L1D Same Page Prefetch Requests: 86561077
L1D ROI Sum of L1D PQ occupancy: 722595892
L1D PREFETCHES PUSHED FROM L2C: 0
L1I SPEC fills:          0  NON-SPEC fills:          0
L1I Test counter :          0
L1I Leapfrog:          0
L1I MSHR merge:          0
L1I TOTAL     ACCESS:   24853474  HIT:   24853474  MISS:          0  HIT %:        100  MISS %:          0   MPKI: 0
L1I LOAD      TOTAL       ACCESS:   24853474  HIT:   24853474  MISS:          0  HIT %:        100  MISS %:          0   MPKI: 0
L1I LOAD      NON_SPEC    ACCESS:   24853474  HIT:   24853474  MISS:          0  HIT %:        100  MISS %:          0   MPKI: 0
L1I PREFETCH  REQUESTED:          0  ISSUED:          0  USEFUL:          0  USELESS:          0
L1I USEFUL LOAD PREFETCHES:          0 PREFETCH ISSUED TO LOWER LEVEL:          0  ACCURACY: -nan
L1I TIMELY PREFETCHES:          0 LATE PREFETCHES: 0 DROPPED PREFETCHES: 0
L1I COMMIT LATE PREFETCHES: 0 NORMAL LATE: 0 MISSED OPPORTUNITY: 0 UNCOVERED: 0
L1I PREFETCHES SAME FILL-ORIGIN LEVEL: 0 DIFFERENT FILL-ORIGIN LEVEL: 0
L1I AVERAGE MISS LATENCY: -nan cycles
L1I AVERAGE MISS LATENCY LOAD: -nan cycles
L1I AVERAGE MISS LATENCY PREFETCH: -nan cycles
L1I AVERAGE MSHR OCCUPANCY: 0
L1I MSHR FULL: 0
L1I RQ	ACCESS:   38836242	FORWARD:          0	MERGED:   13982766	TO_CACHE:   24853476

BTB SPEC fills:          0  NON-SPEC fills:          0
BTB Test counter :          0
BTB Leapfrog:          0
BTB MSHR merge:          0
BTB TOTAL     ACCESS:   29044147  HIT:   29044001  MISS:        146  HIT %:    99.9995  MISS %: 0.000502683   MPKI: 0.00073
BTB BRANCH_DIRECT_JUMP	ACCESS:    9217196  HIT:    9217156  MISS:         40
BTB BRANCH_INDIRECT	ACCESS:          0  HIT:          0  MISS:          0
BTB BRANCH_CONDITIONAL	ACCESS:   19824303  HIT:   19824221  MISS:         82
BTB BRANCH_DIRECT_CALL	ACCESS:       1324  HIT:       1315  MISS:          9
BTB BRANCH_INDIRECT_CALL	ACCESS:          0  HIT:          0  MISS:          0
BTB BRANCH_RETURN	ACCESS:       1324  HIT:       1309  MISS:         15
BTB BRANCH_OTHER ACCESS:          0  HIT:          0  MISS:          0

L2C SPEC fills:          0  NON-SPEC fills:    1121206
L2C Test counter :          0
L2C Leapfrog:          0
L2C MSHR merge:      94325
L2C TOTAL     ACCESS:   35351199  HIT:   20194918  MISS:   15156281  HIT %:    57.1265  MISS %:    42.8735   MPKI: 75.7814
L2C LOAD      TOTAL       ACCESS:    9156028  HIT:    2472219  MISS:    6683809  HIT %:     27.001  MISS %:     72.999   MPKI: 33.419
L2C LOAD      NON_SPEC    ACCESS:    1728068  HIT:     606862  MISS:    1121206  HIT %:    35.1179  MISS %:    64.8821   MPKI: 5.60603
L2C LOAD      SPEC        ACCESS:    7427960  HIT:    1865357  MISS:    5562603  HIT %:    25.1126  MISS %:    74.8874   MPKI: 27.813
L2C RFO       NON_SPEC    ACCESS:     474347  HIT:     293263  MISS:     181084  HIT %:    61.8246  MISS %:    38.1754   MPKI: 0.90542
L2C PREFETCH  NON_SPEC    ACCESS:   13738806  HIT:   11131940  MISS:    2606866  HIT %:    81.0255  MISS %:    18.9745   MPKI: 13.0343
L2C WRITEBACK NON_SPEC    ACCESS:     812395  HIT:     808453  MISS:       3942  HIT %:    99.5148  MISS %:   0.485232   MPKI: 0.01971
L2C CLEAN_EVICTION NON_SPEC    ACCESS:    8514411  HIT:    2944301  MISS:    5570110  HIT %:    34.5802  MISS %:    65.4198   MPKI: 27.8505
L2C COMMIT LOAD NON_SPEC    ACCESS:     111929  HIT:      46812  MISS:      65117  HIT %:    41.8229  MISS %:    58.1771   MPKI: 0.325585
L2C LOAD TRANSLATION NON_SPEC    ACCESS:     283903  HIT:     242439  MISS:      41464  HIT %:     85.395  MISS %:     14.605   MPKI: 0.20732
L2C TRANSLATION FROM L1D PREFETCHER NON_SPEC    ACCESS:    2259380  HIT:    2255491  MISS:       3889  HIT %:    99.8279  MISS %:   0.172127   MPKI: 0.019445
L2C PREFETCH  REQUESTED:          0  ISSUED:          0  USEFUL:     220115  USELESS:    2394529
L2C USEFUL LOAD PREFETCHES:     220115 PREFETCH ISSUED TO LOWER LEVEL:    2702258  ACCURACY: 8.1456
L2C TIMELY PREFETCHES:     220115 LATE PREFETCHES: 95392 DROPPED PREFETCHES: 0
L2C COMMIT LATE PREFETCHES: 0 NORMAL LATE: 95810 MISSED OPPORTUNITY: 0 UNCOVERED: 6589065
L2C PREFETCHES SAME FILL-ORIGIN LEVEL: 2357438 DIFFERENT FILL-ORIGIN LEVEL: 0
L2C AVERAGE MISS LATENCY: 85.853 cycles
L2C AVERAGE MISS LATENCY LOAD: 98.4057 cycles
L2C AVERAGE MISS LATENCY PREFETCH: 226.122 cycles
L2C AVERAGE MSHR OCCUPANCY: 2.44507
L2C MSHR FULL: 4.39538e-06
L2C RQ	ACCESS:   12285649	FORWARD:          0	MERGED:          0	TO_CACHE:   12285586
L2C WQ	ACCESS:    9326822	FORWARD:         64	MERGED:         16	TO_CACHE:    9326806
L2C PQ	ACCESS:   15776696	FORWARD:          0	MERGED:       4719	TO_CACHE:   15771976

L2C Instructions Evicting Data 0
L2C Translations Evicting Data 45140
L2C Data Evicting Data 3957362
L2C Instructions Evicting Instructions 0
L2C Translations Evicting Instructions 0
L2C Data Evicting Instructions 0
L2C Instructions Evicting Translations 0
L2C Translations Evicting Translations 213
L2C Data Evicting Translations 16911
L2C Dense regions hint from L2: 0
PSCL5 SPEC fills:          0  NON-SPEC fills:          0
PSCL5 Test counter :          0
PSCL5 Leapfrog:          0
PSCL5 MSHR merge:          0
PSCL5 TOTAL     ACCESS:          0  HIT:          0  MISS:          0  HIT %:       -nan  MISS %:       -nan   MPKI: 0
PSCL5 PREFETCH  REQUESTED:          0  ISSUED:          0  USEFUL:          0  USELESS:          0
PSCL5 USEFUL LOAD PREFETCHES:          0 PREFETCH ISSUED TO LOWER LEVEL:          0  ACCURACY: -nan
PSCL5 TIMELY PREFETCHES:          0 LATE PREFETCHES: 0 DROPPED PREFETCHES: 0
PSCL5 COMMIT LATE PREFETCHES: 0 NORMAL LATE: 0 MISSED OPPORTUNITY: 0 UNCOVERED: 0
PSCL5 PREFETCHES SAME FILL-ORIGIN LEVEL: 0 DIFFERENT FILL-ORIGIN LEVEL: 0

PSCL4 SPEC fills:          0  NON-SPEC fills:          0
PSCL4 Test counter :          0
PSCL4 Leapfrog:          0
PSCL4 MSHR merge:          0
PSCL4 TOTAL     ACCESS:          0  HIT:          0  MISS:          0  HIT %:       -nan  MISS %:       -nan   MPKI: 0
PSCL4 PREFETCH  REQUESTED:          0  ISSUED:          0  USEFUL:          0  USELESS:          0
PSCL4 USEFUL LOAD PREFETCHES:          0 PREFETCH ISSUED TO LOWER LEVEL:          0  ACCURACY: -nan
PSCL4 TIMELY PREFETCHES:          0 LATE PREFETCHES: 0 DROPPED PREFETCHES: 0
PSCL4 COMMIT LATE PREFETCHES: 0 NORMAL LATE: 0 MISSED OPPORTUNITY: 0 UNCOVERED: 0
PSCL4 PREFETCHES SAME FILL-ORIGIN LEVEL: 0 DIFFERENT FILL-ORIGIN LEVEL: 0

PSCL3 SPEC fills:          0  NON-SPEC fills:          0
PSCL3 Test counter :          0
PSCL3 Leapfrog:          0
PSCL3 MSHR merge:          0
PSCL3 TOTAL     ACCESS:          0  HIT:          0  MISS:          0  HIT %:       -nan  MISS %:       -nan   MPKI: 0
PSCL3 PREFETCH  REQUESTED:          0  ISSUED:          0  USEFUL:          0  USELESS:          0
PSCL3 USEFUL LOAD PREFETCHES:          0 PREFETCH ISSUED TO LOWER LEVEL:          0  ACCURACY: -nan
PSCL3 TIMELY PREFETCHES:          0 LATE PREFETCHES: 0 DROPPED PREFETCHES: 0
PSCL3 COMMIT LATE PREFETCHES: 0 NORMAL LATE: 0 MISSED OPPORTUNITY: 0 UNCOVERED: 0
PSCL3 PREFETCHES SAME FILL-ORIGIN LEVEL: 0 DIFFERENT FILL-ORIGIN LEVEL: 0

PSCL2 SPEC fills:          0  NON-SPEC fills:          0
PSCL2 Test counter :          0
PSCL2 Leapfrog:          0
PSCL2 MSHR merge:          0
PSCL2 TOTAL     ACCESS:          0  HIT:          0  MISS:          0  HIT %:       -nan  MISS %:       -nan   MPKI: 0
PSCL2 PREFETCH  REQUESTED:          0  ISSUED:          0  USEFUL:          0  USELESS:          0
PSCL2 USEFUL LOAD PREFETCHES:          0 PREFETCH ISSUED TO LOWER LEVEL:          0  ACCURACY: -nan
PSCL2 TIMELY PREFETCHES:          0 LATE PREFETCHES: 0 DROPPED PREFETCHES: 0
PSCL2 COMMIT LATE PREFETCHES: 0 NORMAL LATE: 0 MISSED OPPORTUNITY: 0 UNCOVERED: 0
PSCL2 PREFETCHES SAME FILL-ORIGIN LEVEL: 0 DIFFERENT FILL-ORIGIN LEVEL: 0

LLC SPEC fills:          0  NON-SPEC fills:     463480
LLC Test counter :          0
LLC Leapfrog:          0
LLC MSHR merge:          0
LLC TOTAL     ACCESS:   16973563  HIT:    8948533  MISS:    8025030  HIT %:    52.7204  MISS %:    47.2796   MPKI: 40.1251
LLC LOAD      TOTAL       ACCESS:    6589417  HIT:    3772815  MISS:    2816602  HIT %:    57.2557  MISS %:    42.7443   MPKI: 14.083
LLC LOAD      NON_SPEC    ACCESS:    1106428  HIT:     642948  MISS:     463480  HIT %:    58.1102  MISS %:    41.8898   MPKI: 2.3174
LLC LOAD      SPEC        ACCESS:    5482989  HIT:    3129867  MISS:    2353122  HIT %:    57.0832  MISS %:    42.9168   MPKI: 11.7656
LLC RFO       NON_SPEC    ACCESS:     181079  HIT:      74826  MISS:     106253  HIT %:    41.3223  MISS %:    58.6777   MPKI: 0.531265
LLC PREFETCH  NON_SPEC    ACCESS:    2702256  HIT:     362322  MISS:    2339934  HIT %:    13.4081  MISS %:    86.5919   MPKI: 11.6997
LLC WRITEBACK NON_SPEC    ACCESS:     317837  HIT:     309653  MISS:       8184  HIT %:    97.4251  MISS %:     2.5749   MPKI: 0.04092
LLC CLEAN_EVICTION NON_SPEC    ACCESS:    7073587  HIT:    4363364  MISS:    2710223  HIT %:    61.6853  MISS %:    38.3147   MPKI: 13.5511
LLC COMMIT LOAD NON_SPEC    ACCESS:      64034  HIT:      54772  MISS:       9262  HIT %:    85.5358  MISS %:    14.4642   MPKI: 0.04631
LLC LOAD TRANSLATION NON_SPEC    ACCESS:      41464  HIT:      10451  MISS:      31013  HIT %:     25.205  MISS %:     74.795   MPKI: 0.155065
LLC TRANSLATION FROM L1D PREFETCHER NON_SPEC    ACCESS:       3889  HIT:        330  MISS:       3559  HIT %:    8.48547  MISS %:    91.5145   MPKI: 0.017795
LLC PREFETCH  REQUESTED:          0  ISSUED:          0  USEFUL:     179187  USELESS:    2179265
LLC USEFUL LOAD PREFETCHES:     179187 PREFETCH ISSUED TO LOWER LEVEL:    2339934  ACCURACY: 7.65778
LLC TIMELY PREFETCHES:     179187 LATE PREFETCHES: 0 DROPPED PREFETCHES: 0
LLC COMMIT LATE PREFETCHES: 0 NORMAL LATE: 0 MISSED OPPORTUNITY: 0 UNCOVERED: 0
LLC PREFETCHES SAME FILL-ORIGIN LEVEL: 0 DIFFERENT FILL-ORIGIN LEVEL: 0
LLC AVERAGE MISS LATENCY: 133.791 cycles
LLC AVERAGE MISS LATENCY LOAD: 172.891 cycles
LLC AVERAGE MISS LATENCY PREFETCH: 231.481 cycles
LLC AVERAGE MSHR OCCUPANCY: 1.9131
LLC MSHR FULL: 0
LLC RQ	ACCESS:    6879970	FORWARD:          0	MERGED:          0	TO_CACHE:    6879882
LLC WQ	ACCESS:    7391424	FORWARD:         90	MERGED:          0	TO_CACHE:    7391424
LLC PQ	ACCESS:    2702258	FORWARD:          0	MERGED:          0	TO_CACHE:    2702256

LLC Dense regions hint to LLC: 0

RAW hits: 61303
Loads Generated: 76764937
Loads sent to L1D: 76703632
Stores Generated: 2241351
Stores sent to L1D: 2241352
Major fault: 0 Minor fault: 36864
Allocated PAGES: 36864
Total Load insts: 93559793
Total Non-spec loads: 6338178
Percentage of speculative loads: 93.2255

LeapFrogging counter: 651908
Commit hits: 24218239 miss: 47191830
Commit hit %: 33.9143 miss %: 66.0857
Commits not translated: 0
Loads retired: 9208444
Stores retired: 2241352
Cache fills: 9208450
L1D response latency: 85.1931 cycles
Load retirement latency: 170.599 cycles
OOO test counter: 0
Discarded buffer inserts: 24218239 hits: 21737 hit %: 0.0897547
Filter prediction accuracy: -nan
ALL MISSES SIZE: 14826
LATENCY_FILL: 84.6111 9197018
LATENCY_FILL_ROB: 158.937 9200636
test counter pref: 147600533
Max ROB Extended: 23
test counter pref: 116907007

DRAM Statistics
 CHANNEL 0
 RQ ROW_BUFFER_HIT:     889212  ROW_BUFFER_MISS:    4415605
 DBUS_CONGESTED:       3016
 WQ ROW_BUFFER_HIT:    1671077  ROW_BUFFER_MISS:    2794107  FULL:      16953

 AVG_CONGESTED_CYCLE: 5
 All warmup complete: 2
Channel 0 Bank busy for read cycles: 0
Channel 0 Bank busy for write cycles: 0
Channel 0
Rank 0
0banks busy for read cycles: 4672882
0banks busy for write cycles: 21165
1banks busy for read cycles: 142086855
1banks busy for write cycles: 4744636
2banks busy for read cycles: 97209670
2banks busy for write cycles: 5693709
3banks busy for read cycles: 50601285
3banks busy for write cycles: 6696950
4banks busy for read cycles: 21353131
4banks busy for write cycles: 7929904
5banks busy for read cycles: 8850240
5banks busy for write cycles: 10172680
6banks busy for read cycles: 4864350
6banks busy for write cycles: 15503056
7banks busy for read cycles: 4548388
7banks busy for write cycles: 33143322
8banks busy for read cycles: 4692956
8banks busy for write cycles: 79394211

CPU 0 Branch Prediction Accuracy: 97.7638% MPKI: 3.32603 Average ROB Occupancy at Mispredict: 160.151
Branch types
NOT_BRANCH: 170252779 85.1264%
BRANCH_DIRECT_JUMP: 9217196 4.6086%
BRANCH_INDIRECT: 0 0%
BRANCH_CONDITIONAL: 20527371 10.2637%
BRANCH_DIRECT_CALL: 1324 0.000662%
BRANCH_INDIRECT_CALL: 0 0%
BRANCH_RETURN: 1324 0.000662%
BRANCH_OTHER: 0 0%

DRAM PAGES: 1048576
Allocated PAGES: 36864
