
*** ChampSim Multicore Out-of-Order Simulator ***

Warmup Instructions: 50000000
Simulation Instructions: 200000000
Number of CPUs: 1
LLC sets: 2048
LLC ways: 16
L0D sets: 16
L0D ways: 2
ROB size: 352
LQ size: 128
SQ size: 72
Secure Berti: ON
Berti: ON
Berti Fill: ON
On commit prefetching: OFF
Hit-based filter: OFF
Time-guarding: ON
Free-slotting: ON
Leap-frogging: ON
Train prefetcher on L0D bypass: OFF
No translation penalty for prefetchers: OFF
Prefetch to L0D only: OFF
Prefetch to L1D only: OFF
Clean evictions: ON
Commit loads: ON
Commit write: ON
Fill commit loads to L2C, LLC: ON
DRAM IO FREQUENCY: 6400
ROB SIZE: 352
Off-chip DRAM Size: 4096 MB Channels: 1 Width: 64-bit Data Rate: 6400 MT/s
CPU 0 runs /home/sumon/secure_berti/GhostMinion/../../traces/gap/sssp-3.trace.gz
.gz
BTB has LRU replacement policy
ITLB has LRU replacement policy
DTLB has LRU replacement policy
STLB has LRU replacement policy
L1I has LRU replacement policy
L0D has LRU replacement policy
Berti version on_commit
History Sets: 8
History Ways: 16
BERTI Size: 16
BERTI Stride Size: 16
History Sets: 8
History Ways: 16
BERTI Size: 16
BERTI Stride Size: 16
L1D has LRU replacement policy
L2C has LRU replacement policy
LLC has LRU replacement policy
Heartbeat CPU 0 instructions: 10000001 cycles: 4038770 heartbeat IPC: 2.476 cumulative IPC: 2.476 (Simulation time: 0 hr 1 min 29 sec) 
Heartbeat CPU 0 instructions: 20000001 cycles: 7947511 heartbeat IPC: 2.55837 cumulative IPC: 2.51651 (Simulation time: 0 hr 3 min 10 sec) 
Heartbeat CPU 0 instructions: 30000002 cycles: 11809778 heartbeat IPC: 2.58915 cumulative IPC: 2.54027 (Simulation time: 0 hr 4 min 51 sec) 
Heartbeat CPU 0 instructions: 40000001 cycles: 15647837 heartbeat IPC: 2.60548 cumulative IPC: 2.55626 (Simulation time: 0 hr 6 min 33 sec) 
Heartbeat CPU 0 instructions: 50000000 cycles: 19469507 heartbeat IPC: 2.61666 cumulative IPC: 2.56812 (Simulation time: 0 hr 8 min 15 sec) 

Warmup complete CPU 0 instructions: 50000004 cycles: 19469508 (Simulation time: 0 hr 8 min 15 sec) 

Heartbeat CPU 0 instructions: 60000001 cycles: 48492968 heartbeat IPC: 0.344549 cumulative IPC: 0.344549 (Simulation time: 0 hr 10 min 33 sec) 
Heartbeat CPU 0 instructions: 70000000 cycles: 76265938 heartbeat IPC: 0.360062 cumulative IPC: 0.352135 (Simulation time: 0 hr 12 min 50 sec) 
Heartbeat CPU 0 instructions: 80000000 cycles: 103419738 heartbeat IPC: 0.368273 cumulative IPC: 0.357355 (Simulation time: 0 hr 15 min 8 sec) 
Heartbeat CPU 0 instructions: 90000002 cycles: 130775816 heartbeat IPC: 0.36555 cumulative IPC: 0.359369 (Simulation time: 0 hr 17 min 28 sec) 
Heartbeat CPU 0 instructions: 100000000 cycles: 156889724 heartbeat IPC: 0.382938 cumulative IPC: 0.363847 (Simulation time: 0 hr 19 min 45 sec) 
Heartbeat CPU 0 instructions: 110000000 cycles: 183646237 heartbeat IPC: 0.373741 cumulative IPC: 0.36546 (Simulation time: 0 hr 22 min 6 sec) 
Heartbeat CPU 0 instructions: 120000000 cycles: 208801116 heartbeat IPC: 0.397537 cumulative IPC: 0.369722 (Simulation time: 0 hr 24 min 23 sec) 
Heartbeat CPU 0 instructions: 130000002 cycles: 234245175 heartbeat IPC: 0.393019 cumulative IPC: 0.372482 (Simulation time: 0 hr 26 min 42 sec) 
Heartbeat CPU 0 instructions: 140000000 cycles: 259199731 heartbeat IPC: 0.400728 cumulative IPC: 0.375422 (Simulation time: 0 hr 29 min 2 sec) 
Heartbeat CPU 0 instructions: 150000000 cycles: 284130247 heartbeat IPC: 0.401115 cumulative IPC: 0.377842 (Simulation time: 0 hr 31 min 24 sec) 
Heartbeat CPU 0 instructions: 160000001 cycles: 308715337 heartbeat IPC: 0.406751 cumulative IPC: 0.380299 (Simulation time: 0 hr 33 min 44 sec) 
Heartbeat CPU 0 instructions: 170000003 cycles: 332973824 heartbeat IPC: 0.412227 cumulative IPC: 0.38277 (Simulation time: 0 hr 36 min 3 sec) 
Heartbeat CPU 0 instructions: 180000003 cycles: 357106511 heartbeat IPC: 0.414376 cumulative IPC: 0.385029 (Simulation time: 0 hr 38 min 23 sec) 
Heartbeat CPU 0 instructions: 190000001 cycles: 380760120 heartbeat IPC: 0.422768 cumulative IPC: 0.3875 (Simulation time: 0 hr 40 min 42 sec) 
Heartbeat CPU 0 instructions: 200000002 cycles: 404465210 heartbeat IPC: 0.42185 cumulative IPC: 0.389615 (Simulation time: 0 hr 43 min 2 sec) 
Heartbeat CPU 0 instructions: 210000003 cycles: 428279816 heartbeat IPC: 0.41991 cumulative IPC: 0.39138 (Simulation time: 0 hr 45 min 22 sec) 
Heartbeat CPU 0 instructions: 220000000 cycles: 452091553 heartbeat IPC: 0.419961 cumulative IPC: 0.392953 (Simulation time: 0 hr 47 min 44 sec) 
Heartbeat CPU 0 instructions: 230000002 cycles: 475616908 heartbeat IPC: 0.425073 cumulative IPC: 0.394609 (Simulation time: 0 hr 50 min 3 sec) 
Heartbeat CPU 0 instructions: 240000000 cycles: 499061799 heartbeat IPC: 0.426532 cumulative IPC: 0.39617 (Simulation time: 0 hr 52 min 23 sec) 
Heartbeat CPU 0 instructions: 250000002 cycles: 522670763 heartbeat IPC: 0.423568 cumulative IPC: 0.397455 (Simulation time: 0 hr 54 min 43 sec) 
Finished CPU 0 instructions: 200000002 cycles: 503201256 cumulative IPC: 0.397455 (Simulation time: 0 hr 54 min 43 sec) 
 Instruction ID: 250000220

ChampSim completed all CPUs

Region of Interest Statistics

CPU 0 cumulative IPC: 0.397455 instructions: 200000002 cycles: 503201256
ITLB SPEC fills:          0  NON-SPEC fills:          0
ITLB Test counter :          0
ITLB Leapfrog:          0
ITLB MSHR merge:          0
ITLB TOTAL     ACCESS:   24185295  HIT:   24185295  MISS:          0  HIT %:        100  MISS %:          0   MPKI: 0
ITLB LOAD TRANSLATION NON_SPEC    ACCESS:   24185295  HIT:   24185295  MISS:          0  HIT %:        100  MISS %:          0   MPKI: 0
ITLB PREFETCH  REQUESTED:          0  ISSUED:          0  USEFUL:          0  USELESS:          0
ITLB USEFUL LOAD PREFETCHES:          0 PREFETCH ISSUED TO LOWER LEVEL:          0  ACCURACY: -nan
ITLB TIMELY PREFETCHES:          0 LATE PREFETCHES: 0 DROPPED PREFETCHES: 0
ITLB COMMIT LATE PREFETCHES: 0 NORMAL LATE: 0 MISSED OPPORTUNITY: 0 UNCOVERED: 0
ITLB PREFETCHES SAME FILL-ORIGIN LEVEL: 0 DIFFERENT FILL-ORIGIN LEVEL: 0
ITLB AVERAGE MISS LATENCY: -nan cycles
ITLB AVERAGE MISS LATENCY LOAD: -nan cycles
ITLB AVERAGE MISS LATENCY PREFETCH: -nan cycles
ITLB AVERAGE MSHR OCCUPANCY: 0
ITLB MSHR FULL: 0
ITLB RQ	ACCESS:   24848319	FORWARD:          0	MERGED:     663025	TO_CACHE:   24185294

DTLB SPEC fills:          0  NON-SPEC fills:          0
DTLB Test counter :          0
DTLB Leapfrog:          0
DTLB MSHR merge:          0
DTLB TOTAL     ACCESS:   47582233  HIT:   43038044  MISS:    4544189  HIT %:    90.4498  MISS %:    9.55018   MPKI: 22.7209
DTLB LOAD TRANSLATION NON_SPEC    ACCESS:   47582233  HIT:   43038044  MISS:    4544189  HIT %:    90.4498  MISS %:    9.55018   MPKI: 22.7209
DTLB PREFETCH  REQUESTED:          0  ISSUED:          0  USEFUL:          0  USELESS:          0
DTLB USEFUL LOAD PREFETCHES:          0 PREFETCH ISSUED TO LOWER LEVEL:          0  ACCURACY: -nan
DTLB TIMELY PREFETCHES:          0 LATE PREFETCHES: 0 DROPPED PREFETCHES: 0
DTLB COMMIT LATE PREFETCHES: 0 NORMAL LATE: 0 MISSED OPPORTUNITY: 0 UNCOVERED: 0
DTLB PREFETCHES SAME FILL-ORIGIN LEVEL: 0 DIFFERENT FILL-ORIGIN LEVEL: 0
DTLB AVERAGE MISS LATENCY: 12.241 cycles
DTLB AVERAGE MISS LATENCY LOAD: -nan cycles
DTLB AVERAGE MISS LATENCY PREFETCH: -nan cycles
DTLB AVERAGE MSHR OCCUPANCY: 0.226854
DTLB MSHR FULL: 2.29687e-07
DTLB RQ	ACCESS:   58805561	FORWARD:          0	MERGED:   10914251	TO_CACHE:   47891310

STLB SPEC fills:          0  NON-SPEC fills:          0
STLB Test counter :          0
STLB Leapfrog:          0
STLB MSHR merge:          0
STLB TOTAL     ACCESS:   11141449  HIT:   11082854  MISS:      58595  HIT %:    99.4741  MISS %:   0.525919   MPKI: 0.292975
STLB LOAD TRANSLATION NON_SPEC    ACCESS:    4544189  HIT:    4487814  MISS:      56375  HIT %:    98.7594  MISS %:     1.2406   MPKI: 0.281875
STLB TRANSLATION FROM L1D PREFETCHER NON_SPEC    ACCESS:    6597260  HIT:    6595040  MISS:       2220  HIT %:    99.9663  MISS %:  0.0336503   MPKI: 0.0111
STLB PREFETCH  REQUESTED:          0  ISSUED:          0  USEFUL:       2143  USELESS:         75
STLB USEFUL LOAD PREFETCHES:       2143 PREFETCH ISSUED TO LOWER LEVEL:          0  ACCURACY: inf
STLB TIMELY PREFETCHES:       2143 LATE PREFETCHES: 10971 DROPPED PREFETCHES: 414596
STLB COMMIT LATE PREFETCHES: 0 NORMAL LATE: 0 MISSED OPPORTUNITY: 0 UNCOVERED: 0
STLB PREFETCHES SAME FILL-ORIGIN LEVEL: 0 DIFFERENT FILL-ORIGIN LEVEL: 0
STLB AVERAGE MISS LATENCY: 240.105 cycles
STLB AVERAGE MISS LATENCY LOAD: -nan cycles
STLB AVERAGE MISS LATENCY PREFETCH: -nan cycles
STLB AVERAGE MSHR OCCUPANCY: 0.0737263
STLB MSHR FULL: 0
STLB RQ	ACCESS:   38647244	FORWARD:          0	MERGED:   26992630	TO_CACHE:   11654614

STLB Hit, L1D data hit: 0
STLB Hit, L2C data hit: 0
STLB Hit, LLC data hit: 0
STLB Hit, LLC data miss: 0
STLB STLB hints to L2: 0
L0D SPEC fills:   28786256  NON-SPEC fills:          0
L0D TimeGuard Request with older TS:    2066942 Restricted eviction:     286755 read:    3830918
L0D Test counter :          0
L0D Leapfrog:          0
L0D MSHR merge:    3041774
L0D TOTAL     ACCESS:   53558875  HIT:   19575845  MISS:   33983030  HIT %:    36.5501  MISS %:    63.4499   MPKI: 169.915
L0D LOAD      TOTAL       ACCESS:   53558875  HIT:   19575845  MISS:   33983030  HIT %:    36.5501  MISS %:    63.4499   MPKI: 169.915
L0D LOAD      NON_SPEC    ACCESS:    5152312  HIT:     242293  MISS:    4910019  HIT %:    4.70261  MISS %:    95.2974   MPKI: 24.5501
L0D LOAD      SPEC        ACCESS:   48406563  HIT:   19333552  MISS:   29073011  HIT %:    39.9399  MISS %:    60.0601   MPKI: 145.365
L0D PREFETCH  REQUESTED:          0  ISSUED:          0  USEFUL:          0  USELESS:          0
L0D USEFUL LOAD PREFETCHES:          0 PREFETCH ISSUED TO LOWER LEVEL:          0  ACCURACY: -nan
L0D TIMELY PREFETCHES:          0 LATE PREFETCHES: 0 DROPPED PREFETCHES: 0
L0D COMMIT LATE PREFETCHES: 0 NORMAL LATE: 0 MISSED OPPORTUNITY: 0 UNCOVERED: 0
L0D PREFETCHES SAME FILL-ORIGIN LEVEL: 0 DIFFERENT FILL-ORIGIN LEVEL: 0
L0D AVERAGE MISS LATENCY: 28.3479 cycles
L0D AVERAGE MISS LATENCY LOAD: 28.3479 cycles
L0D AVERAGE MISS LATENCY PREFETCH: -nan cycles
L0D AVERAGE MSHR OCCUPANCY: 1.96528
L0D MSHR FULL: 0.0223502
L0D RQ	ACCESS:   76745616	FORWARD:          0	MERGED:   20144970	TO_CACHE:   56600646
L0D WQ	ACCESS:    2204915	FORWARD:          0	MERGED:          0	TO_CACHE:    2204915

L1D SPEC fills:          0  NON-SPEC fills:    1742129
L1D Test counter :    9206744
L1D Leapfrog:          0
L1D MSHR merge:      44686
L1D TOTAL     ACCESS:  100198848  HIT:   81764229  MISS:   18434619  HIT %:     81.602  MISS %:     18.398   MPKI: 92.1731
L1D LOAD      TOTAL       ACCESS:   33981822  HIT:   24729290  MISS:    9252532  HIT %:    72.7721  MISS %:    27.2279   MPKI: 46.2627
L1D LOAD      NON_SPEC    ACCESS:    4909279  HIT:    3167150  MISS:    1742129  HIT %:    64.5135  MISS %:    35.4865   MPKI: 8.71064
L1D LOAD      SPEC        ACCESS:   29072543  HIT:   21562140  MISS:    7510403  HIT %:    74.1667  MISS %:    25.8333   MPKI: 37.552
L1D RFO       NON_SPEC    ACCESS:    2022157  HIT:    1553735  MISS:     468422  HIT %:    76.8355  MISS %:    23.1645   MPKI: 2.34211
L1D PREFETCH  NON_SPEC    ACCESS:   16609366  HIT:   15398726  MISS:    1210640  HIT %:    92.7111  MISS %:     7.2889   MPKI: 6.0532
L1D COMMIT LOAD NON_SPEC    ACCESS:   20738381  HIT:   20614914  MISS:     123467  HIT %:    99.4046  MISS %:   0.595355   MPKI: 0.617335
L1D COMMIT WRITE NON_SPEC    ACCESS:   26847122  HIT:   19467564  MISS:    7379558  HIT %:    72.5127  MISS %:    27.4873   MPKI: 36.8978
L1D PREFETCH  REQUESTED:   76598377  ISSUED:   75254262  USEFUL:    1134042  USELESS:      76585
L1D USEFUL LOAD PREFETCHES:    1134042 PREFETCH ISSUED TO LOWER LEVEL:   16927062  ACCURACY: 6.69958
L1D TIMELY PREFETCHES:    1134042 LATE PREFETCHES: 49088 DROPPED PREFETCHES: 1241681
L1D COMMIT LATE PREFETCHES: 81695 NORMAL LATE: 40877 MISSED OPPORTUNITY: 20814 UNCOVERED: 9115498
L1D PREFETCHES SAME FILL-ORIGIN LEVEL: 1259728 DIFFERENT FILL-ORIGIN LEVEL: 15667334
L1D AVERAGE MISS LATENCY: 49.6227 cycles
L1D AVERAGE MISS LATENCY LOAD: 84.9704 cycles
L1D AVERAGE MISS LATENCY PREFETCH: 62.6751 cycles
L1D AVERAGE MSHR OCCUPANCY: 1.73615
L1D MSHR FULL: 0.0346023
L1D RQ	ACCESS:   78603613	FORWARD:          0	MERGED:   17568730	TO_CACHE:   54722728
L1D WQ	ACCESS:   29075196	FORWARD:    6312155	MERGED:      24946	TO_CACHE:   29050250
L1D PQ	ACCESS:   75254262	FORWARD:          0	MERGED:   41151207	TO_CACHE:   34103055

L1D UNIQUE REGIONS ACCESSED: 0
L1D REGIONS CONFLICTS: 0
L1D Cross Page Prefetch Requests: 7163107
L1D Same Page Prefetch Requests: 84836029
L1D ROI Sum of L1D PQ occupancy: 693363054
L1D PREFETCHES PUSHED FROM L2C: 0
L1I SPEC fills:          0  NON-SPEC fills:          0
L1I Test counter :          0
L1I Leapfrog:          0
L1I MSHR merge:          0
L1I TOTAL     ACCESS:   24848318  HIT:   24848318  MISS:          0  HIT %:        100  MISS %:          0   MPKI: 0
L1I LOAD      TOTAL       ACCESS:   24848318  HIT:   24848318  MISS:          0  HIT %:        100  MISS %:          0   MPKI: 0
L1I LOAD      NON_SPEC    ACCESS:   24848318  HIT:   24848318  MISS:          0  HIT %:        100  MISS %:          0   MPKI: 0
L1I PREFETCH  REQUESTED:          0  ISSUED:          0  USEFUL:          0  USELESS:          0
L1I USEFUL LOAD PREFETCHES:          0 PREFETCH ISSUED TO LOWER LEVEL:          0  ACCURACY: -nan
L1I TIMELY PREFETCHES:          0 LATE PREFETCHES: 0 DROPPED PREFETCHES: 0
L1I COMMIT LATE PREFETCHES: 0 NORMAL LATE: 0 MISSED OPPORTUNITY: 0 UNCOVERED: 0
L1I PREFETCHES SAME FILL-ORIGIN LEVEL: 0 DIFFERENT FILL-ORIGIN LEVEL: 0
L1I AVERAGE MISS LATENCY: -nan cycles
L1I AVERAGE MISS LATENCY LOAD: -nan cycles
L1I AVERAGE MISS LATENCY PREFETCH: -nan cycles
L1I AVERAGE MSHR OCCUPANCY: 0
L1I MSHR FULL: 0
L1I RQ	ACCESS:   38852448	FORWARD:          0	MERGED:   14004129	TO_CACHE:   24848319

BTB SPEC fills:          0  NON-SPEC fills:          0
BTB Test counter :          0
BTB Leapfrog:          0
BTB MSHR merge:          0
BTB TOTAL     ACCESS:   29073095  HIT:   29072932  MISS:        163  HIT %:    99.9994  MISS %: 0.000560656   MPKI: 0.000815
BTB BRANCH_DIRECT_JUMP	ACCESS:    9228469  HIT:    9228425  MISS:         44
BTB BRANCH_INDIRECT	ACCESS:          0  HIT:          0  MISS:          0
BTB BRANCH_CONDITIONAL	ACCESS:   19842028  HIT:   19841937  MISS:         91
BTB BRANCH_DIRECT_CALL	ACCESS:       1299  HIT:       1288  MISS:         11
BTB BRANCH_INDIRECT_CALL	ACCESS:          0  HIT:          0  MISS:          0
BTB BRANCH_RETURN	ACCESS:       1299  HIT:       1282  MISS:         17
BTB BRANCH_OTHER ACCESS:          0  HIT:          0  MISS:          0

L2C SPEC fills:          0  NON-SPEC fills:    1140151
L2C Test counter :          0
L2C Leapfrog:          0
L2C MSHR merge:      88518
L2C TOTAL     ACCESS:   36415717  HIT:   21211014  MISS:   15204703  HIT %:    58.2469  MISS %:    41.7531   MPKI: 76.0235
L2C LOAD      TOTAL       ACCESS:    9209008  HIT:    2471320  MISS:    6737688  HIT %:    26.8359  MISS %:    73.1641   MPKI: 33.6884
L2C LOAD      NON_SPEC    ACCESS:    1741893  HIT:     601742  MISS:    1140151  HIT %:    34.5453  MISS %:    65.4547   MPKI: 5.70075
L2C LOAD      SPEC        ACCESS:    7467115  HIT:    1869578  MISS:    5597537  HIT %:    25.0375  MISS %:    74.9625   MPKI: 27.9877
L2C RFO       NON_SPEC    ACCESS:     468419  HIT:     289950  MISS:     178469  HIT %:    61.8997  MISS %:    38.1003   MPKI: 0.892345
L2C PREFETCH  NON_SPEC    ACCESS:   14865250  HIT:   12298518  MISS:    2566732  HIT %:    82.7333  MISS %:    17.2667   MPKI: 12.8337
L2C WRITEBACK NON_SPEC    ACCESS:     800505  HIT:     796354  MISS:       4151  HIT %:    99.4815  MISS %:   0.518548   MPKI: 0.020755
L2C CLEAN_EVICTION NON_SPEC    ACCESS:    8537002  HIT:    2932018  MISS:    5604984  HIT %:    34.3448  MISS %:    65.6552   MPKI: 28.0249
L2C COMMIT LOAD NON_SPEC    ACCESS:     117840  HIT:      49495  MISS:      68345  HIT %:    42.0019  MISS %:    57.9981   MPKI: 0.341725
L2C LOAD TRANSLATION NON_SPEC    ACCESS:     278758  HIT:     237944  MISS:      40814  HIT %:    85.3586  MISS %:    14.6414   MPKI: 0.20407
L2C TRANSLATION FROM L1D PREFETCHER NON_SPEC    ACCESS:    2138935  HIT:    2135415  MISS:       3520  HIT %:    99.8354  MISS %:   0.164568   MPKI: 0.0176
L2C PREFETCH  REQUESTED:          0  ISSUED:          0  USEFUL:     211997  USELESS:    2358306
L2C USEFUL LOAD PREFETCHES:     211997 PREFETCH ISSUED TO LOWER LEVEL:    2656401  ACCURACY: 7.98061
L2C TIMELY PREFETCHES:     211997 LATE PREFETCHES: 89670 DROPPED PREFETCHES: 0
L2C COMMIT LATE PREFETCHES: 0 NORMAL LATE: 90160 MISSED OPPORTUNITY: 0 UNCOVERED: 6648682
L2C PREFETCHES SAME FILL-ORIGIN LEVEL: 2384432 DIFFERENT FILL-ORIGIN LEVEL: 0
L2C AVERAGE MISS LATENCY: 84.5973 cycles
L2C AVERAGE MISS LATENCY LOAD: 97.9652 cycles
L2C AVERAGE MISS LATENCY PREFETCH: 223.84 cycles
L2C AVERAGE MSHR OCCUPANCY: 2.42077
L2C MSHR FULL: 9.66177e-06
L2C RQ	ACCESS:   12213029	FORWARD:          0	MERGED:          0	TO_CACHE:   12212963
L2C WQ	ACCESS:    9337524	FORWARD:         67	MERGED:         16	TO_CACHE:    9337508
L2C PQ	ACCESS:   16927061	FORWARD:          0	MERGED:       2696	TO_CACHE:   16924364

L2C Instructions Evicting Data 0
L2C Translations Evicting Data 44088
L2C Data Evicting Data 3937296
L2C Instructions Evicting Instructions 0
L2C Translations Evicting Instructions 0
L2C Data Evicting Instructions 0
L2C Instructions Evicting Translations 0
L2C Translations Evicting Translations 246
L2C Data Evicting Translations 16425
L2C Dense regions hint from L2: 0
PSCL5 SPEC fills:          0  NON-SPEC fills:          0
PSCL5 Test counter :          0
PSCL5 Leapfrog:          0
PSCL5 MSHR merge:          0
PSCL5 TOTAL     ACCESS:          0  HIT:          0  MISS:          0  HIT %:       -nan  MISS %:       -nan   MPKI: 0
PSCL5 PREFETCH  REQUESTED:          0  ISSUED:          0  USEFUL:          0  USELESS:          0
PSCL5 USEFUL LOAD PREFETCHES:          0 PREFETCH ISSUED TO LOWER LEVEL:          0  ACCURACY: -nan
PSCL5 TIMELY PREFETCHES:          0 LATE PREFETCHES: 0 DROPPED PREFETCHES: 0
PSCL5 COMMIT LATE PREFETCHES: 0 NORMAL LATE: 0 MISSED OPPORTUNITY: 0 UNCOVERED: 0
PSCL5 PREFETCHES SAME FILL-ORIGIN LEVEL: 0 DIFFERENT FILL-ORIGIN LEVEL: 0

PSCL4 SPEC fills:          0  NON-SPEC fills:          0
PSCL4 Test counter :          0
PSCL4 Leapfrog:          0
PSCL4 MSHR merge:          0
PSCL4 TOTAL     ACCESS:          0  HIT:          0  MISS:          0  HIT %:       -nan  MISS %:       -nan   MPKI: 0
PSCL4 PREFETCH  REQUESTED:          0  ISSUED:          0  USEFUL:          0  USELESS:          0
PSCL4 USEFUL LOAD PREFETCHES:          0 PREFETCH ISSUED TO LOWER LEVEL:          0  ACCURACY: -nan
PSCL4 TIMELY PREFETCHES:          0 LATE PREFETCHES: 0 DROPPED PREFETCHES: 0
PSCL4 COMMIT LATE PREFETCHES: 0 NORMAL LATE: 0 MISSED OPPORTUNITY: 0 UNCOVERED: 0
PSCL4 PREFETCHES SAME FILL-ORIGIN LEVEL: 0 DIFFERENT FILL-ORIGIN LEVEL: 0

PSCL3 SPEC fills:          0  NON-SPEC fills:          0
PSCL3 Test counter :          0
PSCL3 Leapfrog:          0
PSCL3 MSHR merge:          0
PSCL3 TOTAL     ACCESS:          0  HIT:          0  MISS:          0  HIT %:       -nan  MISS %:       -nan   MPKI: 0
PSCL3 PREFETCH  REQUESTED:          0  ISSUED:          0  USEFUL:          0  USELESS:          0
PSCL3 USEFUL LOAD PREFETCHES:          0 PREFETCH ISSUED TO LOWER LEVEL:          0  ACCURACY: -nan
PSCL3 TIMELY PREFETCHES:          0 LATE PREFETCHES: 0 DROPPED PREFETCHES: 0
PSCL3 COMMIT LATE PREFETCHES: 0 NORMAL LATE: 0 MISSED OPPORTUNITY: 0 UNCOVERED: 0
PSCL3 PREFETCHES SAME FILL-ORIGIN LEVEL: 0 DIFFERENT FILL-ORIGIN LEVEL: 0

PSCL2 SPEC fills:          0  NON-SPEC fills:          0
PSCL2 Test counter :          0
PSCL2 Leapfrog:          0
PSCL2 MSHR merge:          0
PSCL2 TOTAL     ACCESS:          0  HIT:          0  MISS:          0  HIT %:       -nan  MISS %:       -nan   MPKI: 0
PSCL2 PREFETCH  REQUESTED:          0  ISSUED:          0  USEFUL:          0  USELESS:          0
PSCL2 USEFUL LOAD PREFETCHES:          0 PREFETCH ISSUED TO LOWER LEVEL:          0  ACCURACY: -nan
PSCL2 TIMELY PREFETCHES:          0 LATE PREFETCHES: 0 DROPPED PREFETCHES: 0
PSCL2 COMMIT LATE PREFETCHES: 0 NORMAL LATE: 0 MISSED OPPORTUNITY: 0 UNCOVERED: 0
PSCL2 PREFETCHES SAME FILL-ORIGIN LEVEL: 0 DIFFERENT FILL-ORIGIN LEVEL: 0

LLC SPEC fills:          0  NON-SPEC fills:     471604
LLC Test counter :          0
LLC Leapfrog:          0
LLC MSHR merge:          0
LLC TOTAL     ACCESS:   17000993  HIT:    9014120  MISS:    7986873  HIT %:    53.0211  MISS %:    46.9789   MPKI: 39.9344
LLC LOAD      TOTAL       ACCESS:    6649110  HIT:    3818328  MISS:    2830782  HIT %:    57.4262  MISS %:    42.5738   MPKI: 14.1539
LLC LOAD      NON_SPEC    ACCESS:    1125924  HIT:     654320  MISS:     471604  HIT %:     58.114  MISS %:     41.886   MPKI: 2.35802
LLC LOAD      SPEC        ACCESS:    5523186  HIT:    3164008  MISS:    2359178  HIT %:    57.2859  MISS %:    42.7141   MPKI: 11.7959
LLC RFO       NON_SPEC    ACCESS:     178466  HIT:      76212  MISS:     102254  HIT %:    42.7039  MISS %:    57.2961   MPKI: 0.51127
LLC PREFETCH  NON_SPEC    ACCESS:    2656402  HIT:     378273  MISS:    2278129  HIT %:    14.2401  MISS %:    85.7599   MPKI: 11.3906
LLC WRITEBACK NON_SPEC    ACCESS:     313565  HIT:     305505  MISS:       8060  HIT %:    97.4296  MISS %:    2.57044   MPKI: 0.0403
LLC CLEAN_EVICTION NON_SPEC    ACCESS:    7091938  HIT:    4368329  MISS:    2723609  HIT %:    61.5957  MISS %:    38.4043   MPKI: 13.618
LLC COMMIT LOAD NON_SPEC    ACCESS:      67178  HIT:      57372  MISS:       9806  HIT %:     85.403  MISS %:     14.597   MPKI: 0.04903
LLC LOAD TRANSLATION NON_SPEC    ACCESS:      40814  HIT:       9913  MISS:      30901  HIT %:    24.2882  MISS %:    75.7118   MPKI: 0.154505
LLC TRANSLATION FROM L1D PREFETCHER NON_SPEC    ACCESS:       3520  HIT:        188  MISS:       3332  HIT %:    5.34091  MISS %:    94.6591   MPKI: 0.01666
LLC PREFETCH  REQUESTED:          0  ISSUED:          0  USEFUL:     179217  USELESS:    2103095
LLC USEFUL LOAD PREFETCHES:     179217 PREFETCH ISSUED TO LOWER LEVEL:    2278129  ACCURACY: 7.86685
LLC TIMELY PREFETCHES:     179217 LATE PREFETCHES: 0 DROPPED PREFETCHES: 0
LLC COMMIT LATE PREFETCHES: 0 NORMAL LATE: 0 MISSED OPPORTUNITY: 0 UNCOVERED: 0
LLC PREFETCHES SAME FILL-ORIGIN LEVEL: 0 DIFFERENT FILL-ORIGIN LEVEL: 0
LLC AVERAGE MISS LATENCY: 132.449 cycles
LLC AVERAGE MISS LATENCY LOAD: 172.794 cycles
LLC AVERAGE MISS LATENCY PREFETCH: 230.889 cycles
LLC AVERAGE MSHR OCCUPANCY: 1.90307
LLC MSHR FULL: 0
LLC RQ	ACCESS:    6939168	FORWARD:          0	MERGED:          0	TO_CACHE:    6939090
LLC WQ	ACCESS:    7405504	FORWARD:         78	MERGED:          0	TO_CACHE:    7405504
LLC PQ	ACCESS:    2656401	FORWARD:          0	MERGED:          0	TO_CACHE:    2656401

LLC Dense regions hint to LLC: 0

RAW hits: 60630
Loads Generated: 76806247
Loads sent to L1D: 76745616
Stores Generated: 2204913
Stores sent to L1D: 2204915
Major fault: 0 Minor fault: 36550
Allocated PAGES: 36550
Total Load insts: 93563199
Total Non-spec loads: 6343089
Percentage of speculative loads: 93.2205

LeapFrogging counter: 644231
Commit hits: 26870343 miss: 44620584
Commit hit %: 37.5857 miss %: 62.4143
Commits not translated: 0
Loads retired: 9252530
Stores retired: 2204915
Cache fills: 9252532
L1D response latency: 84.9704 cycles
Load retirement latency: 170.204 cycles
OOO test counter: 0
Discarded buffer inserts: 26870343 hits: 22161 hit %: 0.0824738
Filter prediction accuracy: -nan
ALL MISSES SIZE: 14917
LATENCY_FILL: 84.4344 9241600
LATENCY_FILL_ROB: 158.591 9244888
test counter pref: 147439494
Max ROB Extended: 17
test counter pref: 116992050

DRAM Statistics
 CHANNEL 0
 RQ ROW_BUFFER_HIT:     854959  ROW_BUFFER_MISS:    4398418
 DBUS_CONGESTED:       2854
 WQ ROW_BUFFER_HIT:    1701000  ROW_BUFFER_MISS:    2758981  FULL:      20296

 AVG_CONGESTED_CYCLE: 5
 All warmup complete: 2
Channel 0 Bank busy for read cycles: 0
Channel 0 Bank busy for write cycles: 0
Channel 0
Rank 0
0banks busy for read cycles: 4652848
0banks busy for write cycles: 20316
1banks busy for read cycles: 143430789
1banks busy for write cycles: 4644771
2banks busy for read cycles: 97791735
2banks busy for write cycles: 5491412
3banks busy for read cycles: 50905960
3banks busy for write cycles: 6381009
4banks busy for read cycles: 21337505
4banks busy for write cycles: 7665049
5banks busy for read cycles: 8715225
5banks busy for write cycles: 9923161
6banks busy for read cycles: 4699188
6banks busy for write cycles: 15435638
7banks busy for read cycles: 4256041
7banks busy for write cycles: 33724149
8banks busy for read cycles: 4135966
8banks busy for write cycles: 79990495

CPU 0 Branch Prediction Accuracy: 97.7925% MPKI: 3.28398 Average ROB Occupancy at Mispredict: 161.787
Branch types
NOT_BRANCH: 170247321 85.1237%
BRANCH_DIRECT_JUMP: 9228469 4.61423%
BRANCH_INDIRECT: 0 0%
BRANCH_CONDITIONAL: 20521450 10.2607%
BRANCH_DIRECT_CALL: 1299 0.0006495%
BRANCH_INDIRECT_CALL: 0 0%
BRANCH_RETURN: 1299 0.0006495%
BRANCH_OTHER: 0 0%

DRAM PAGES: 1048576
Allocated PAGES: 36550
