Initialize SIGNATURE TABLE
ST_SET: 1
ST_WAY: 256
ST_TAG_BIT: 16
ST_TAG_MASK: ffff

Initialize PATTERN TABLE
PT_SET: 512
PT_WAY: 4
SIG_DELTA_BIT: 7
C_SIG_BIT: 4
C_DELTA_BIT: 4

Initialize PREFETCH FILTER
FILTER_SET: 1024

Initialize PERCEPTRON
PERC_ENTRIES: 4096
PERC_FEATURES: 9

*** ChampSim Multicore Out-of-Order Simulator ***

Warmup Instructions: 50000000
Simulation Instructions: 200000000
Number of CPUs: 1
LLC sets: 2048
LLC ways: 16
Secure Berti: OFF
Berti: OFF
Berti Fill: OFF
On commit prefetching: OFF
L2 LLC Bypass speculative loads: OFF
Off-chip DRAM Size: 4096 MB Channels: 1 Width: 64-bit Data Rate: 6400 MT/s
CPU 0 runs /home/sumon/secure_berti/Berti_Baseline/../../traces/gap/bfs-8.trace.gz
.gz
BTB has LRU replacement policy
ITLB has LRU replacement policy
DTLB has LRU replacement policy
STLB has LRU replacement policy
L1I has LRU replacement policy
L1D has LRU replacement policy
PERC_ENTRIES: 4096
L2C has LRU replacement policy
LLC has LRU replacement policy
Heartbeat CPU 0 instructions: 10000002 cycles: 2971985 heartbeat IPC: 3.36476 cumulative IPC: 3.36476 (Simulation time: 0 hr 0 min 14 sec) 
Heartbeat CPU 0 instructions: 20000001 cycles: 5935648 heartbeat IPC: 3.3742 cumulative IPC: 3.36947 (Simulation time: 0 hr 0 min 43 sec) 
Heartbeat CPU 0 instructions: 30000003 cycles: 8888825 heartbeat IPC: 3.38618 cumulative IPC: 3.37502 (Simulation time: 0 hr 1 min 3 sec) 
Heartbeat CPU 0 instructions: 40000002 cycles: 11954015 heartbeat IPC: 3.26244 cumulative IPC: 3.34616 (Simulation time: 0 hr 1 min 20 sec) 
Heartbeat CPU 0 instructions: 50000002 cycles: 15124769 heartbeat IPC: 3.15382 cumulative IPC: 3.30584 (Simulation time: 0 hr 1 min 28 sec) 

Warmup complete CPU 0 instructions: 50000002 cycles: 15124769 (Simulation time: 0 hr 1 min 28 sec) 

Heartbeat CPU 0 instructions: 60000000 cycles: 37658019 heartbeat IPC: 0.443789 cumulative IPC: 0.443789 (Simulation time: 0 hr 1 min 51 sec) 
Heartbeat CPU 0 instructions: 70000000 cycles: 58342951 heartbeat IPC: 0.483444 cumulative IPC: 0.462768 (Simulation time: 0 hr 2 min 11 sec) 
Heartbeat CPU 0 instructions: 80000001 cycles: 90230175 heartbeat IPC: 0.313605 cumulative IPC: 0.399439 (Simulation time: 0 hr 2 min 36 sec) 
Heartbeat CPU 0 instructions: 90000001 cycles: 130102068 heartbeat IPC: 0.250803 cumulative IPC: 0.347895 (Simulation time: 0 hr 3 min 2 sec) 
Heartbeat CPU 0 instructions: 100000000 cycles: 169999521 heartbeat IPC: 0.250643 cumulative IPC: 0.322841 (Simulation time: 0 hr 3 min 28 sec) 
Heartbeat CPU 0 instructions: 110000000 cycles: 214358927 heartbeat IPC: 0.225431 cumulative IPC: 0.301153 (Simulation time: 0 hr 3 min 53 sec) 
Heartbeat CPU 0 instructions: 120000002 cycles: 247662500 heartbeat IPC: 0.300268 cumulative IPC: 0.301026 (Simulation time: 0 hr 4 min 15 sec) 
Heartbeat CPU 0 instructions: 130000001 cycles: 263611178 heartbeat IPC: 0.627011 cumulative IPC: 0.321949 (Simulation time: 0 hr 4 min 32 sec) 
Heartbeat CPU 0 instructions: 140000000 cycles: 279932309 heartbeat IPC: 0.612703 cumulative IPC: 0.339869 (Simulation time: 0 hr 4 min 50 sec) 
Heartbeat CPU 0 instructions: 150000001 cycles: 307289842 heartbeat IPC: 0.36553 cumulative IPC: 0.342272 (Simulation time: 0 hr 5 min 13 sec) 
Heartbeat CPU 0 instructions: 160000000 cycles: 346774155 heartbeat IPC: 0.253265 cumulative IPC: 0.331676 (Simulation time: 0 hr 5 min 37 sec) 
Heartbeat CPU 0 instructions: 170000001 cycles: 386289391 heartbeat IPC: 0.253067 cumulative IPC: 0.323307 (Simulation time: 0 hr 6 min 1 sec) 
Heartbeat CPU 0 instructions: 180000000 cycles: 426540141 heartbeat IPC: 0.248443 cumulative IPC: 0.315982 (Simulation time: 0 hr 6 min 25 sec) 
Heartbeat CPU 0 instructions: 190000001 cycles: 475671562 heartbeat IPC: 0.203536 cumulative IPC: 0.303986 (Simulation time: 0 hr 6 min 52 sec) 
Heartbeat CPU 0 instructions: 200000000 cycles: 510412891 heartbeat IPC: 0.287842 cumulative IPC: 0.302854 (Simulation time: 0 hr 7 min 14 sec) 
Heartbeat CPU 0 instructions: 210000000 cycles: 526646613 heartbeat IPC: 0.616002 cumulative IPC: 0.312792 (Simulation time: 0 hr 7 min 31 sec) 
Heartbeat CPU 0 instructions: 220000000 cycles: 542988301 heartbeat IPC: 0.611932 cumulative IPC: 0.322053 (Simulation time: 0 hr 7 min 49 sec) 
Heartbeat CPU 0 instructions: 230000000 cycles: 571617076 heartbeat IPC: 0.349299 cumulative IPC: 0.323455 (Simulation time: 0 hr 8 min 12 sec) 
Heartbeat CPU 0 instructions: 240000001 cycles: 609660208 heartbeat IPC: 0.26286 cumulative IPC: 0.319577 (Simulation time: 0 hr 8 min 38 sec) 
Heartbeat CPU 0 instructions: 250000002 cycles: 647853448 heartbeat IPC: 0.261826 cumulative IPC: 0.316091 (Simulation time: 0 hr 9 min 4 sec) 
Finished CPU 0 instructions: 200000000 cycles: 632728679 cumulative IPC: 0.316091 (Simulation time: 0 hr 9 min 4 sec) 

ChampSim completed all CPUs

Region of Interest Statistics

CPU 0 cumulative IPC: 0.316091 instructions: 200000000 cycles: 632728679
ITLB TOTAL     ACCESS:   33977831  HIT:   33977831  MISS:          0  HIT %:        100  MISS %:          0   MPKI: 0
ITLB Test counter:          0
ITLB LOAD TRANSLATION ACCESS:   33977831  HIT:   33977831  MISS:          0  HIT %:        100  MISS %:          0   MPKI: 0
ITLB PREFETCH  REQUESTED:          0  ISSUED:          0  USEFUL:          0  USELESS:          0
ITLB USEFUL LOAD PREFETCHES:          0 PREFETCH ISSUED TO LOWER LEVEL:          0  ACCURACY: -nan
ITLB TIMELY PREFETCHES:          0 LATE PREFETCHES: 0 DROPPED PREFETCHES: 0
ITLB COMMIT LATE PREFETCHES: 0 MISSED OPPORTUNITY: 0 LATE IN PQ: 0 UNCOVERED: 0
ITLB COMMIT LATE MSHR PREFETCHES: 0
ITLB MPKI TOTAL: 0 MSHR LATE: 0 PQ LATE: 0 COMMIT LATE: 0 MISSED OPPORTUNITY: 0 UNCOVERED: 0
ITLB PREFETCHES SAME FILL-ORIGIN LEVEL: 0 DIFFERENT FILL-ORIGIN LEVEL: 0
ITLB AVERAGE MISS LATENCY: -nan cycles
ITLB AVERAGE MISS LATENCY LOAD: -nan cycles
ITLB AVERAGE MISS LATENCY PREFETCH: -nan cycles
ITLB AVERAGE MSHR OCCUPANCY: 0
ITLB MSHR FULL: 0
ITLB RQ	ACCESS:   42976156	FORWARD:          0	MERGED:    8998326	TO_CACHE:   33977830

DTLB TOTAL     ACCESS:   40105970  HIT:   39836941  MISS:     269029  HIT %:    99.3292  MISS %:   0.670795   MPKI: 1.34515
DTLB Test counter:          0
DTLB LOAD TRANSLATION ACCESS:   40105970  HIT:   39836941  MISS:     269029  HIT %:    99.3292  MISS %:   0.670795   MPKI: 1.34515
DTLB PREFETCH  REQUESTED:          0  ISSUED:          0  USEFUL:          0  USELESS:          0
DTLB USEFUL LOAD PREFETCHES:          0 PREFETCH ISSUED TO LOWER LEVEL:          0  ACCURACY: -nan
DTLB TIMELY PREFETCHES:          0 LATE PREFETCHES: 0 DROPPED PREFETCHES: 0
DTLB COMMIT LATE PREFETCHES: 0 MISSED OPPORTUNITY: 0 LATE IN PQ: 0 UNCOVERED: 0
DTLB COMMIT LATE MSHR PREFETCHES: 0
DTLB MPKI TOTAL: 0 MSHR LATE: 0 PQ LATE: 0 COMMIT LATE: 0 MISSED OPPORTUNITY: 0 UNCOVERED: 0
DTLB PREFETCHES SAME FILL-ORIGIN LEVEL: 0 DIFFERENT FILL-ORIGIN LEVEL: 0
DTLB AVERAGE MISS LATENCY: 49.6527 cycles
DTLB AVERAGE MISS LATENCY LOAD: -nan cycles
DTLB AVERAGE MISS LATENCY PREFETCH: -nan cycles
DTLB AVERAGE MSHR OCCUPANCY: 0.00868237
DTLB MSHR FULL: 0
DTLB RQ	ACCESS:   42858153	FORWARD:          0	MERGED:    2736042	TO_CACHE:   40122111

STLB TOTAL     ACCESS:     269029  HIT:      94210  MISS:     174819  HIT %:    35.0185  MISS %:    64.9815   MPKI: 0.874095
STLB Test counter:          0
STLB LOAD TRANSLATION ACCESS:     269029  HIT:      94210  MISS:     174819  HIT %:    35.0185  MISS %:    64.9815   MPKI: 0.874095
STLB PREFETCH  REQUESTED:          0  ISSUED:          0  USEFUL:          0  USELESS:          0
STLB USEFUL LOAD PREFETCHES:          0 PREFETCH ISSUED TO LOWER LEVEL:          0  ACCURACY: -nan
STLB TIMELY PREFETCHES:          0 LATE PREFETCHES: 0 DROPPED PREFETCHES: 0
STLB COMMIT LATE PREFETCHES: 0 MISSED OPPORTUNITY: 0 LATE IN PQ: 0 UNCOVERED: 0
STLB COMMIT LATE MSHR PREFETCHES: 0
STLB MPKI TOTAL: 0 MSHR LATE: 0 PQ LATE: 0 COMMIT LATE: 0 MISSED OPPORTUNITY: 0 UNCOVERED: 0
STLB PREFETCHES SAME FILL-ORIGIN LEVEL: 0 DIFFERENT FILL-ORIGIN LEVEL: 0
STLB AVERAGE MISS LATENCY: 62.5375 cycles
STLB AVERAGE MISS LATENCY LOAD: -nan cycles
STLB AVERAGE MISS LATENCY PREFETCH: -nan cycles
STLB AVERAGE MSHR OCCUPANCY: 0.0710778
STLB MSHR FULL: 0
STLB RQ	ACCESS:     269029	FORWARD:          0	MERGED:          0	TO_CACHE:     269029

STLB Hit, L1D data hit: 0
STLB Hit, L2C data hit: 0
STLB Hit, LLC data hit: 0
STLB Hit, LLC data miss: 0
STLB STLB hints to L2: 0
L1D TOTAL     ACCESS:   41234793  HIT:   35958998  MISS:    5275795  HIT %:    87.2055  MISS %:    12.7945   MPKI: 26.379
L1D Test counter:          0
L1D LOAD      ACCESS:   35442291  HIT:   30405502  MISS:    5462101  HIT %:    85.7888  MISS %:    14.2112   MPKI: 25.1839
L1D RFO       ACCESS:    5792502  HIT:    5553496  MISS:     239006  HIT %:    95.8739  MISS %:    4.12613   MPKI: 1.19503
L1D PREFETCH  REQUESTED:          0  ISSUED:          0  USEFUL:          0  USELESS:          0
L1D USEFUL LOAD PREFETCHES:          0 PREFETCH ISSUED TO LOWER LEVEL:          0  ACCURACY: -nan
L1D TIMELY PREFETCHES:          0 LATE PREFETCHES: 0 DROPPED PREFETCHES: 0
L1D COMMIT LATE PREFETCHES: 0 MISSED OPPORTUNITY: 0 LATE IN PQ: 0 UNCOVERED: 0
L1D COMMIT LATE MSHR PREFETCHES: 0
L1D MPKI TOTAL: 27.3105 MSHR LATE: 0 PQ LATE: 0 COMMIT LATE: 0 MISSED OPPORTUNITY: 0 UNCOVERED: 0
L1D PREFETCHES SAME FILL-ORIGIN LEVEL: 0 DIFFERENT FILL-ORIGIN LEVEL: 0
L1D AVERAGE MISS LATENCY: 48.5071 cycles
L1D AVERAGE MISS LATENCY LOAD: 43.2174 cycles
L1D AVERAGE MISS LATENCY PREFETCH: -nan cycles
L1D AVERAGE MSHR OCCUPANCY: 0.320072
L1D MSHR FULL: 0.00614311
L1D RQ	ACCESS:   48964743	FORWARD:          0	MERGED:   13071845	TO_CACHE:   35867603
L1D WQ	ACCESS:    7109411	FORWARD:      25295	MERGED:     118861	TO_CACHE:    6990550

L1D UNIQUE REGIONS ACCESSED: 0
L1D REGIONS CONFLICTS: 0
L1D Cross Page Prefetch Requests: 0
L1D Same Page Prefetch Requests: 0
L1D ROI Sum of L1D PQ occupancy: 0
L1D PREFETCHES PUSHED FROM L2C: 0
55ecb86b564c: 1
55ecb86b5313: 1
14e534adc646: 1
14e534ab55f4: 1
55ecb86b3e77: 1
14e534ab8d3b: 1
55ecb86b55c5: 1
55ecb86bcca0: 1
55ecb86b5636: 1
55ecb86b5352: 2
55ecb86b5347: 2
14e534ab8d7f: 2
55ecb86b3e00: 2
55ecb86b5914: 3
55ecb86b3ace: 3
14e534a7c530: 3
55ecb86b3330: 3
14e534b53240: 3
14e534a7c67a: 3
55ecb86b3aee: 3
55ecb86b5603: 3
55ecb86b530b: 3
55ecb86b55a7: 3
14e534a7c3c3: 3
14e534b5324b: 3
14e534a7c67e: 3
14e534b53254: 3
14e534aac951: 3
14e534ad2143: 3
55ecb86b5962: 3
55ecb86b54d5: 3
55ecb86b573d: 3
55ecb86b3e73: 3
14e534a7986b: 3
14e534a42230: 3
55ecb86b3b10: 3
14e534b53247: 3
14e534a7c3bc: 3
14e534a7c5e5: 3
14e534a7c3cc: 3
14e534a42040: 3
55ecb86b54ea: 3
55ecb86b556f: 3
55ecb86b54fc: 3
14e534ab6123: 3
55ecb86b593f: 3
55ecb86b531f: 3
55ecb86b3a8c: 3
55ecb86b55e8: 3
55ecb86b55c0: 3
55ecb86b5950: 3
55ecb86b51b9: 5
14e534ab55a7: 5
55ecb86b5866: 6
55ecb86b50eb: 6
14e534ab8d43: 6
14e534ab8c4f: 6
55ecb86b57a1: 7
55ecb86b5797: 7
55ecb86b5782: 7
55ecb86b5789: 7
14e534ab5f10: 8
14e534adc6c3: 8
55ecb86b55fe: 9
14e534ab8971: 11
14e534ab5574: 11
55ecb86b5054: 11
14e534ab8a09: 11
14e534ab5f73: 11
14e534ab8c95: 11
14e534ab5323: 11
14e534ab80c1: 11
14e534ab54f8: 11
14e534ab558f: 11
14e534ab80af: 11
14e534ab8076: 11
14e534ab80cf: 11
14e534ab8c61: 11
14e534ab5581: 11
14e534ab80e3: 11
14e534ab899f: 12
14e534ab89a6: 12
14e534ab8c88: 12
14e534ab8c45: 12
14e534ab8c6b: 12
55ecb86b3430: 13
14e534ab8a27: 13
14e534adc63e: 13
14e534adc97f: 13
14e534ab8d1a: 14
14e535451d00: 14
14e534ab931c: 14
14e5354523f0: 15
14e534ab8978: 15
14e534ab8e55: 15
55ecb86b35d0: 15
14e534ab8961: 15
14e534adc672: 15
55ecb86b36a0: 16
14e534ab58e8: 17
55ecb86b3340: 17
14e534ab898d: 18
55ecb86b3690: 19
14e534ab565b: 19
14e5354516d0: 19
14e534ab807d: 19
14e535451b30: 20
7ffe2e0f1d75: 27
55ecb86b509c: 29
55ecb86b5019: 32
55ecb86b582f: 132
55ecb86b5015: 2455
14e534adc67f: 2550
55ecb86b5024: 4899
14e534adc68a: 5444
55ecb86b52ba: 5540
55ecb86b56c0: 5935
55ecb86b5838: 10842
55ecb86b5020: 33753
55ecb86b56d7: 33868
55ecb86b5051: 45041
55ecb86b57fd: 81363
55ecb86b5063: 177618
55ecb86b5900: 196602
55ecb86b57cb: 301345
55ecb86b54a0: 393216
55ecb86b57bd: 445410
55ecb86b57cf: 585570
55ecb86b580b: 722342
55ecb86b57d9: 944808
55ecb86b57e7: 1037166
L1I TOTAL     ACCESS:   42976154  HIT:   42976141  MISS:         13  HIT %:        100  MISS %: 3.02493e-05   MPKI: 6.5e-05
L1I Test counter:          0
L1I LOAD      ACCESS:   42976154  HIT:   42976141  MISS:         16  HIT %:        100  MISS %: 3.02493e-05   MPKI: 6.5e-05
L1I PREFETCH  REQUESTED:          0  ISSUED:          0  USEFUL:          0  USELESS:          0
L1I USEFUL LOAD PREFETCHES:          0 PREFETCH ISSUED TO LOWER LEVEL:          0  ACCURACY: -nan
L1I TIMELY PREFETCHES:          0 LATE PREFETCHES: 0 DROPPED PREFETCHES: 0
L1I COMMIT LATE PREFETCHES: 0 MISSED OPPORTUNITY: 0 LATE IN PQ: 0 UNCOVERED: 0
L1I COMMIT LATE MSHR PREFETCHES: 0
L1I MPKI TOTAL: 8e-05 MSHR LATE: 0 PQ LATE: 0 COMMIT LATE: 0 MISSED OPPORTUNITY: 0 UNCOVERED: 0
L1I PREFETCHES SAME FILL-ORIGIN LEVEL: 0 DIFFERENT FILL-ORIGIN LEVEL: 0
L1I AVERAGE MISS LATENCY: 198.615 cycles
L1I AVERAGE MISS LATENCY LOAD: 198.615 cycles
L1I AVERAGE MISS LATENCY PREFETCH: -nan cycles
L1I AVERAGE MSHR OCCUPANCY: 2.09418e-07
L1I MSHR FULL: 0
L1I RQ	ACCESS:   65169866	FORWARD:          0	MERGED:   22193710	TO_CACHE:   42976156

14e534adc482: 1
14e534ab8cc1: 1
14e534adc5c3: 1
14e534a7e103: 1
14e534a7e0db: 1
55ecb86b3b03: 1
55ecb86b5330: 1
55ecb86b58c4: 1
55ecb86b5900: 1
55ecb86b3cfd: 1
55ecb86b5947: 1
55ecb86b5342: 1
55ecb86b3ac1: 1
BTB TOTAL     ACCESS:   40501981  HIT:   40501627  MISS:        354  HIT %:    99.9991  MISS %: 0.000874031   MPKI: 0.00177
BTB Test counter:          0
BTB BRANCH_DIRECT_JUMP	ACCESS:      40166  HIT:      40120  MISS:         46
BTB BRANCH_INDIRECT	ACCESS:          3  HIT:          2  MISS:          1
BTB BRANCH_CONDITIONAL	ACCESS:   40461171  HIT:   40461068  MISS:        103
BTB BRANCH_DIRECT_CALL	ACCESS:        311  HIT:        267  MISS:         44
BTB BRANCH_INDIRECT_CALL	ACCESS:          9  HIT:          6  MISS:          3
BTB BRANCH_RETURN	ACCESS:        321  HIT:        164  MISS:        157
BTB BRANCH_OTHER ACCESS:          0  HIT:          0  MISS:          0

L2C TOTAL     ACCESS:   10241277  HIT:    5793812  MISS:    4447465  HIT %:    56.5731  MISS %:    43.4269   MPKI: 22.2373
L2C Test counter:          0
L2C LOAD      ACCESS:    5036802  HIT:    4045729  MISS:     991073  HIT %:    80.3234  MISS %:    19.6766   MPKI: 4.95536
L2C DATA LOAD MPKI: 4.9553
L2C INSTRUCTION LOAD MPKI: 6.5e-05
L2C RFO       ACCESS:     239006  HIT:       8285  MISS:     230721  HIT %:    3.46644  MISS %:    96.5336   MPKI: 1.1536
L2C PREFETCH  ACCESS:    4129545  HIT:     935192  MISS:    3194353  HIT %:    22.6464  MISS %:    77.3536   MPKI: 15.9718
L2C DATA PREFETCH MPKI: 15.9718
L2C INSTRUCTION PREFETCH MPKI: 0
L2C WRITEBACK ACCESS:     660210  HIT:     660195  MISS:         15  HIT %:    99.9977  MISS %:   0.002272   MPKI: 7.5e-05
L2C LOAD TRANSLATION ACCESS:     175714  HIT:     144411  MISS:      31303  HIT %:    82.1853  MISS %:    17.8147   MPKI: 0.156515
L2C PREFETCH  REQUESTED:    4317876  ISSUED:    4317876  USEFUL:    2394306  USELESS:     798362
L2C USEFUL LOAD PREFETCHES:    2394306 PREFETCH ISSUED TO LOWER LEVEL:    3363932  ACCURACY: 71.1758
L2C TIMELY PREFETCHES:    2394306 LATE PREFETCHES: 69986 DROPPED PREFETCHES: 0
L2C COMMIT LATE PREFETCHES: 0 MISSED OPPORTUNITY: 0 LATE IN PQ: 0 UNCOVERED: 0
L2C COMMIT LATE MSHR PREFETCHES: 0
L2C MPKI TOTAL: 4.95536 MSHR LATE: 0.34993 PQ LATE: 0 COMMIT LATE: 0 MISSED OPPORTUNITY: 0 UNCOVERED: 0
L2C PREFETCHES SAME FILL-ORIGIN LEVEL: 3264340 DIFFERENT FILL-ORIGIN LEVEL: 99592
L2C AVERAGE MISS LATENCY: 150.473 cycles
L2C AVERAGE MISS LATENCY LOAD: 143.88 cycles
L2C AVERAGE MISS LATENCY PREFETCH: 152.04 cycles
L2C AVERAGE MSHR OCCUPANCY: 0.866974
L2C MSHR FULL: 0
L2C RQ	ACCESS:    5451522	FORWARD:          0	MERGED:          0	TO_CACHE:    5451522
L2C WQ	ACCESS:     660210	FORWARD:          0	MERGED:          0	TO_CACHE:     660210
L2C PQ	ACCESS:    4317876	FORWARD:          0	MERGED:       2864	TO_CACHE:    4315012

L2C Instructions Evicting Data 13
L2C Translations Evicting Data 31080
L2C Data Evicting Data 4384961
L2C Instructions Evicting Instructions 0
L2C Translations Evicting Instructions 0
L2C Data Evicting Instructions 16
L2C Instructions Evicting Translations 0
L2C Translations Evicting Translations 223
L2C Data Evicting Translations 31157
L2C Dense regions hint from L2: 0
55ecb86b3ac1: 1
55ecb86b5342: 1
14e534adc5c3: 1
55ecb86b58c4: 1
55ecb86b5962: 1
14e534a7e103: 1
55ecb86b3cfd: 1
55ecb86b5330: 1
55ecb86b55c5: 1
14e534aac951: 1
55ecb86b530b: 1
14e534ab55f4: 1
55ecb86b5947: 1
55ecb86b5352: 1
14e534ab8cc1: 1
55ecb86b3b03: 1
14e534a7e0db: 1
14e534ab8d3b: 1
55ecb86bcca0: 1
14e534adc482: 1
55ecb86b55fe: 2
55ecb86b3e00: 2
55ecb86b50eb: 2
14e534ab55a7: 2
55ecb86b3a8c: 2
14e534a7c3cc: 2
14e534b53254: 2
55ecb86b3ace: 2
14e534ab5f10: 2
14e534ab8d7f: 2
55ecb86b3330: 2
55ecb86b593f: 2
14e534a42230: 2
14e534a7986b: 3
14e534ad2143: 3
14e534b53240: 3
55ecb86b55c0: 3
55ecb86b3e73: 3
55ecb86b54ea: 3
14e534a7c3bc: 3
14e534a7c5e5: 3
55ecb86b54fc: 3
14e534ab6123: 3
55ecb86b5950: 3
14e534a7c3c3: 3
14e534b53247: 3
14e534a42040: 3
14e534a7c530: 3
14e534a7c67e: 3
55ecb86b54d5: 3
14e534b5324b: 3
14e534ab8c4f: 3
14e534a7c67a: 3
55ecb86b3aee: 3
14e534ab5581: 3
55ecb86b5914: 3
55ecb86b3b10: 3
14e534ab5574: 4
14e534ab8c95: 4
14e534ab8d43: 4
14e534ab54f8: 4
14e534ab80cf: 5
14e534ab5f73: 5
14e534ab8076: 5
14e534ab80af: 5
55ecb86b5782: 5
14e534ab80c1: 5
14e534ab80e3: 5
14e534ab558f: 5
14e534ab5323: 5
14e534ab899f: 6
55ecb86b3340: 6
55ecb86b5866: 6
55ecb86b509c: 6
14e534ab8c6b: 6
14e534ab8a27: 6
55ecb86b5054: 7
14e534ab8a09: 7
14e534ab8c61: 7
14e534ab89a6: 7
14e534ab8971: 7
14e534ab8c45: 7
14e534ab8c88: 7
55ecb86b5019: 7
55ecb86b57a1: 7
14e534adc63e: 8
55ecb86b36a0: 8
14e534ab8e55: 8
14e5354516d0: 9
14e535451b30: 9
14e534ab807d: 9
14e534ab565b: 9
55ecb86b582f: 9
14e534ab8d1a: 9
14e534ab58e8: 10
55ecb86b3430: 10
55ecb86b3690: 11
14e535451d00: 11
14e534ab8978: 12
55ecb86b35d0: 13
14e534adc672: 13
14e534ab8961: 13
14e5354523f0: 13
14e534ab931c: 13
14e534ab898d: 14
7ffe2e0f1d75: 16
14e534adc67f: 44
55ecb86b5015: 63
55ecb86b56c0: 134
55ecb86b52ba: 147
55ecb86b5838: 911
55ecb86b56d7: 2137
14e534adc68a: 2279
55ecb86b5024: 4624
55ecb86b5900: 6125
55ecb86b57cb: 7019
55ecb86b54a0: 8552
55ecb86b57bd: 10365
55ecb86b57cf: 14051
55ecb86b57fd: 25226
55ecb86b5020: 32074
55ecb86b580b: 33780
55ecb86b5051: 36334
55ecb86b57e7: 107195
55ecb86b5063: 156551
55ecb86b57d9: 542957
PSCL5 TOTAL     ACCESS:     174819  HIT:     174819  MISS:          0  HIT %:        100  MISS %:          0   MPKI: 0
PSCL5 Test counter:          0
PSCL5 LOAD TRANSLATION ACCESS:     174819  HIT:     174819  MISS:          0  HIT %:        100  MISS %:          0   MPKI: 0
PSCL5 PREFETCH  REQUESTED:          0  ISSUED:          0  USEFUL:          0  USELESS:          0
PSCL5 USEFUL LOAD PREFETCHES:          0 PREFETCH ISSUED TO LOWER LEVEL:          0  ACCURACY: -nan
PSCL5 TIMELY PREFETCHES:          0 LATE PREFETCHES: 0 DROPPED PREFETCHES: 0
PSCL5 COMMIT LATE PREFETCHES: 0 MISSED OPPORTUNITY: 0 LATE IN PQ: 0 UNCOVERED: 0
PSCL5 COMMIT LATE MSHR PREFETCHES: 0
PSCL5 MPKI TOTAL: 0 MSHR LATE: 0 PQ LATE: 0 COMMIT LATE: 0 MISSED OPPORTUNITY: 0 UNCOVERED: 0
PSCL5 PREFETCHES SAME FILL-ORIGIN LEVEL: 0 DIFFERENT FILL-ORIGIN LEVEL: 0

PSCL4 TOTAL     ACCESS:     174819  HIT:     174819  MISS:          0  HIT %:        100  MISS %:          0   MPKI: 0
PSCL4 Test counter:          0
PSCL4 LOAD TRANSLATION ACCESS:     174819  HIT:     174819  MISS:          0  HIT %:        100  MISS %:          0   MPKI: 0
PSCL4 PREFETCH  REQUESTED:          0  ISSUED:          0  USEFUL:          0  USELESS:          0
PSCL4 USEFUL LOAD PREFETCHES:          0 PREFETCH ISSUED TO LOWER LEVEL:          0  ACCURACY: -nan
PSCL4 TIMELY PREFETCHES:          0 LATE PREFETCHES: 0 DROPPED PREFETCHES: 0
PSCL4 COMMIT LATE PREFETCHES: 0 MISSED OPPORTUNITY: 0 LATE IN PQ: 0 UNCOVERED: 0
PSCL4 COMMIT LATE MSHR PREFETCHES: 0
PSCL4 MPKI TOTAL: 0 MSHR LATE: 0 PQ LATE: 0 COMMIT LATE: 0 MISSED OPPORTUNITY: 0 UNCOVERED: 0
PSCL4 PREFETCHES SAME FILL-ORIGIN LEVEL: 0 DIFFERENT FILL-ORIGIN LEVEL: 0

PSCL3 TOTAL     ACCESS:     174819  HIT:     174819  MISS:          0  HIT %:        100  MISS %:          0   MPKI: 0
PSCL3 Test counter:          0
PSCL3 LOAD TRANSLATION ACCESS:     174819  HIT:     174819  MISS:          0  HIT %:        100  MISS %:          0   MPKI: 0
PSCL3 PREFETCH  REQUESTED:          0  ISSUED:          0  USEFUL:          0  USELESS:          0
PSCL3 USEFUL LOAD PREFETCHES:          0 PREFETCH ISSUED TO LOWER LEVEL:          0  ACCURACY: -nan
PSCL3 TIMELY PREFETCHES:          0 LATE PREFETCHES: 0 DROPPED PREFETCHES: 0
PSCL3 COMMIT LATE PREFETCHES: 0 MISSED OPPORTUNITY: 0 LATE IN PQ: 0 UNCOVERED: 0
PSCL3 COMMIT LATE MSHR PREFETCHES: 0
PSCL3 MPKI TOTAL: 0 MSHR LATE: 0 PQ LATE: 0 COMMIT LATE: 0 MISSED OPPORTUNITY: 0 UNCOVERED: 0
PSCL3 PREFETCHES SAME FILL-ORIGIN LEVEL: 0 DIFFERENT FILL-ORIGIN LEVEL: 0

PSCL2 TOTAL     ACCESS:     174819  HIT:     173924  MISS:        895  HIT %:     99.488  MISS %:   0.511958   MPKI: 0.004475
PSCL2 Test counter:          0
PSCL2 LOAD TRANSLATION ACCESS:     174819  HIT:     173924  MISS:        895  HIT %:     99.488  MISS %:   0.511958   MPKI: 0.004475
PSCL2 PREFETCH  REQUESTED:          0  ISSUED:          0  USEFUL:          0  USELESS:          0
PSCL2 USEFUL LOAD PREFETCHES:          0 PREFETCH ISSUED TO LOWER LEVEL:          0  ACCURACY: -nan
PSCL2 TIMELY PREFETCHES:          0 LATE PREFETCHES: 0 DROPPED PREFETCHES: 0
PSCL2 COMMIT LATE PREFETCHES: 0 MISSED OPPORTUNITY: 0 LATE IN PQ: 0 UNCOVERED: 0
PSCL2 COMMIT LATE MSHR PREFETCHES: 0
PSCL2 MPKI TOTAL: 0 MSHR LATE: 0 PQ LATE: 0 COMMIT LATE: 0 MISSED OPPORTUNITY: 0 UNCOVERED: 0
PSCL2 PREFETCHES SAME FILL-ORIGIN LEVEL: 0 DIFFERENT FILL-ORIGIN LEVEL: 0

LLC TOTAL     ACCESS:    5171851  HIT:     861731  MISS:    4310120  HIT %:    16.6619  MISS %:    83.3381   MPKI: 21.5506
LLC Test counter:          0
LLC LOAD      ACCESS:     921087  HIT:     163978  MISS:     757109  HIT %:    17.8027  MISS %:    82.1973   MPKI: 3.78554
LLC RFO       ACCESS:     230721  HIT:       5777  MISS:     224944  HIT %:    2.50389  MISS %:    97.4961   MPKI: 1.12472
LLC PREFETCH  ACCESS:    3360649  HIT:      68108  MISS:    3292541  HIT %:    2.02663  MISS %:    97.9734   MPKI: 16.4627
LLC WRITEBACK ACCESS:     628091  HIT:     622869  MISS:       5222  HIT %:    99.1686  MISS %:   0.831408   MPKI: 0.02611
LLC LOAD TRANSLATION ACCESS:      31303  HIT:        999  MISS:      30304  HIT %:    3.19139  MISS %:    96.8086   MPKI: 0.15152
LLC PREFETCH  REQUESTED:          0  ISSUED:          0  USEFUL:      21592  USELESS:    3270692
LLC USEFUL LOAD PREFETCHES:      21592 PREFETCH ISSUED TO LOWER LEVEL:    3294745  ACCURACY: 0.655347
LLC TIMELY PREFETCHES:      21592 LATE PREFETCHES: 2203 DROPPED PREFETCHES: 0
LLC COMMIT LATE PREFETCHES: 0 MISSED OPPORTUNITY: 0 LATE IN PQ: 0 UNCOVERED: 0
LLC COMMIT LATE MSHR PREFETCHES: 0
LLC MPKI TOTAL: 3.78554 MSHR LATE: 0.011015 PQ LATE: 0 COMMIT LATE: 0 MISSED OPPORTUNITY: 0 UNCOVERED: 0
LLC PREFETCHES SAME FILL-ORIGIN LEVEL: 71330 DIFFERENT FILL-ORIGIN LEVEL: 0
LLC AVERAGE MISS LATENCY: 128.131 cycles
LLC AVERAGE MISS LATENCY LOAD: 141.605 cycles
LLC AVERAGE MISS LATENCY PREFETCH: 125.121 cycles
LLC AVERAGE MSHR OCCUPANCY: 1.00463
LLC MSHR FULL: 0
LLC RQ	ACCESS:    1183111	FORWARD:          0	MERGED:          0	TO_CACHE:    1183111
LLC WQ	ACCESS:     628091	FORWARD:          0	MERGED:          0	TO_CACHE:     628091
LLC PQ	ACCESS:    3363932	FORWARD:          0	MERGED:        439	TO_CACHE:    3363493

LLC Dense regions hint to LLC: 0
14e534adc482: 1
55ecb86b3cfd: 1
55ecb86b5352: 1
55ecb86b3b03: 1
55ecb86b3ac1: 1
14e534ab8d3b: 1
14e534a7e0db: 1
55ecb86b5947: 1
55ecb86b530b: 1
14e534aac951: 1
55ecb86b5330: 1
14e534a7e103: 1
14e534adc5c3: 1
55ecb86b58c4: 1
55ecb86b5342: 1
55ecb86b582f: 1
14e534ab8cc1: 1
55ecb86bcca0: 1
55ecb86b5019: 1
55ecb86b55c0: 1
14e534ab8d7f: 2
14e534ab5f10: 2
55ecb86b593f: 2
55ecb86b3330: 2
14e534a42230: 2
55ecb86b3ace: 2
14e534b53254: 2
14e534ab55a7: 2
14e534a7c3cc: 2
55ecb86b3e00: 2
55ecb86b50eb: 2
55ecb86b3a8c: 2
14e534ab8c4f: 3
14e534ad2143: 3
55ecb86b54d5: 3
55ecb86b5054: 3
14e534ab8c95: 3
14e534b53240: 3
55ecb86b5950: 3
14e534ab5581: 3
14e534a7c3c3: 3
55ecb86b5914: 3
55ecb86b3aee: 3
14e534a7c67a: 3
14e534a42040: 3
14e534b5324b: 3
14e534a7c5e5: 3
55ecb86b3e73: 3
55ecb86b3b10: 3
14e534b53247: 3
55ecb86b54fc: 3
14e534a7986b: 3
14e534a7c3bc: 3
14e534a7c67e: 3
14e534a7c530: 3
55ecb86b54ea: 3
14e534ab6123: 3
55ecb86b36a0: 3
14e534ab8d43: 3
55ecb86b5782: 4
14e534ab5574: 4
14e534ab558f: 4
14e534ab8c6b: 4
14e534ab54f8: 4
14e534adc63e: 4
55ecb86b57a1: 4
14e534ab5323: 5
14e534ab5f73: 5
14e534ab80e3: 5
14e534ab8076: 5
14e534ab80cf: 5
14e534ab80c1: 5
14e534ab8a27: 5
14e534ab8e55: 5
14e534ab80af: 5
14e534ab89a6: 6
14e534ab8971: 6
14e534ab8a09: 6
14e534ab8c61: 6
55ecb86b5866: 6
55ecb86b3340: 6
14e534ab899f: 6
14e534ab8c88: 6
14e534ab8c45: 6
14e534adc672: 7
14e534ab8d1a: 8
14e5354516d0: 9
14e534ab807d: 9
14e535451b30: 9
55ecb86b3430: 9
14e534ab58e8: 9
14e534ab565b: 9
14e535451d00: 10
55ecb86b3690: 11
14e534ab8961: 12
55ecb86b35d0: 12
14e5354523f0: 12
14e534ab8978: 12
14e534ab931c: 12
14e534ab898d: 13
7ffe2e0f1d75: 15
55ecb86b5015: 48
55ecb86b56c0: 58
14e534adc68a: 124
55ecb86b52ba: 139
55ecb86b5838: 787
55ecb86b56d7: 1056
55ecb86b5024: 4301
55ecb86b5900: 4688
55ecb86b57cb: 6997
55ecb86b580b: 8185
55ecb86b54a0: 8474
55ecb86b57bd: 10340
55ecb86b57cf: 14013
55ecb86b57fd: 19502
55ecb86b57e7: 23168
55ecb86b5020: 29583
55ecb86b5051: 35985
55ecb86b5063: 104677
55ecb86b57d9: 484554

RAW hits: 183408
Loads Generated: 49148151
Loads sent to L1D: 48964743
Stores Generated: 7109412
Stores sent to L1D: 7109411
Major fault: 0 Minor fault: 27368
Allocated PAGES: 27368
Total Load insts: 61476171
Total Non-spec loads: 14949087
Percentage of speculative loads: 75.6831
L1D response latency: 43.2174 cycles
Load retirement latency: 67.2618 cycles

------------------
Depth Distribution
------------------
depth 0: 1920293
depth 1: 999256
depth 2: 729537
depth 3: 669334
depth 4: 385156
depth 5: 34452
depth 6: 145214
depth 7: 73502
depth 8: 135566
depth 9: 221245
depth 10: 38846
depth 11: 196564
depth 12: 260984
depth 13: 48179
depth 14: 433833
depth 15: 70899
depth 16: 59383
depth 17: 28539
depth 18: 19064
depth 19: 3006
depth 20: 313
depth 21: 74
depth 22: 11
depth 23: 0
depth 24: 3
depth 25: 2
depth 26: 0
depth 27: 2
depth 28: 0
depth 29: 0
Total: 6473257
------------------
ST read accesses: 4806469
ST write accesses: 230320
PT read accesses: 143240352
PT write accesses: 7067277
FILTER read accesses: 31931972
FILTER write accesses: 16245935
GHR read accesses: 12574908
GHR write accesses: 1945600
PERC read accesses: 934411653
PERC write accesses: 41839738
GHR counter read accesses: 10073578
GHR counter write accesses: 12313487
GHR ip read accesses: 29118426
GHR ip write accesses: 20147156
ST tag read accesses: 2061956131
ST tag write accesses: 106501670

DRAM Statistics
 CHANNEL 0
 RQ ROW_BUFFER_HIT:    2115815  ROW_BUFFER_MISS:    2189070
 DBUS_CONGESTED:       3134
 WQ ROW_BUFFER_HIT:     152372  ROW_BUFFER_MISS:     457640  FULL:          0

 AVG_CONGESTED_CYCLE: 4
 All warmup complete: 2
Channel 0 Bank busy for read cycles: 0
Channel 0 Bank busy for write cycles: 0
Channel 0
Rank 0
0banks busy for read cycles: 314250037
0banks busy for write cycles: 284120
1banks busy for read cycles: 147049122
1banks busy for write cycles: 41575033
2banks busy for read cycles: 63089198
2banks busy for write cycles: 11866031
3banks busy for read cycles: 25642663
3banks busy for write cycles: 4267284
4banks busy for read cycles: 10469724
4banks busy for write cycles: 1863219
5banks busy for read cycles: 3587374
5banks busy for write cycles: 1171846
6banks busy for read cycles: 1544861
6banks busy for write cycles: 854806
7banks busy for read cycles: 784410
7banks busy for write cycles: 782685
8banks busy for read cycles: 1199397
8banks busy for write cycles: 2446870

CPU 0 Branch Prediction Accuracy: 86.5484% MPKI: 28.7876 Average ROB Occupancy at Mispredict: 8.71616
Branch types
NOT_BRANCH: 157198344 78.5992%
BRANCH_DIRECT_JUMP: 40166 0.020083%
BRANCH_INDIRECT: 3 1.5e-06%
BRANCH_CONDITIONAL: 42760841 21.3804%
BRANCH_DIRECT_CALL: 311 0.0001555%
BRANCH_INDIRECT_CALL: 9 4.5e-06%
BRANCH_RETURN: 321 0.0001605%
BRANCH_OTHER: 0 0%

DRAM PAGES: 1048576
Allocated PAGES: 27368
