Initialize SIGNATURE TABLE
ST_SET: 1
ST_WAY: 256
ST_TAG_BIT: 16
ST_TAG_MASK: ffff

Initialize PATTERN TABLE
PT_SET: 512
PT_WAY: 4
SIG_DELTA_BIT: 7
C_SIG_BIT: 4
C_DELTA_BIT: 4

Initialize PREFETCH FILTER
FILTER_SET: 1024

Initialize PERCEPTRON
PERC_ENTRIES: 4096
PERC_FEATURES: 9

*** ChampSim Multicore Out-of-Order Simulator ***

Warmup Instructions: 50000000
Simulation Instructions: 200000000
Number of CPUs: 1
LLC sets: 2048
LLC ways: 16
Secure Berti: OFF
Berti: OFF
Berti Fill: OFF
On commit prefetching: OFF
L2 LLC Bypass speculative loads: OFF
Off-chip DRAM Size: 4096 MB Channels: 1 Width: 64-bit Data Rate: 6400 MT/s
CPU 0 runs /home/sumon/secure_berti/Berti_Baseline/../../traces/gap/bfs-14.trace.gz
.gz
BTB has LRU replacement policy
ITLB has LRU replacement policy
DTLB has LRU replacement policy
STLB has LRU replacement policy
L1I has LRU replacement policy
L1D has LRU replacement policy
PERC_ENTRIES: 4096
L2C has LRU replacement policy
LLC has LRU replacement policy
Heartbeat CPU 0 instructions: 10000003 cycles: 2972591 heartbeat IPC: 3.36407 cumulative IPC: 3.36407 (Simulation time: 0 hr 0 min 12 sec) 
Heartbeat CPU 0 instructions: 20000001 cycles: 5897562 heartbeat IPC: 3.41884 cumulative IPC: 3.39123 (Simulation time: 0 hr 0 min 35 sec) 
Heartbeat CPU 0 instructions: 30000003 cycles: 8803534 heartbeat IPC: 3.44119 cumulative IPC: 3.40772 (Simulation time: 0 hr 0 min 58 sec) 
Heartbeat CPU 0 instructions: 40000001 cycles: 11752672 heartbeat IPC: 3.39082 cumulative IPC: 3.40348 (Simulation time: 0 hr 1 min 15 sec) 
Heartbeat CPU 0 instructions: 50000002 cycles: 14870965 heartbeat IPC: 3.20688 cumulative IPC: 3.36226 (Simulation time: 0 hr 1 min 25 sec) 

Warmup complete CPU 0 instructions: 50000002 cycles: 14870965 (Simulation time: 0 hr 1 min 25 sec) 

Heartbeat CPU 0 instructions: 60000000 cycles: 43664315 heartbeat IPC: 0.347302 cumulative IPC: 0.347302 (Simulation time: 0 hr 1 min 51 sec) 
Heartbeat CPU 0 instructions: 70000001 cycles: 56954352 heartbeat IPC: 0.752443 cumulative IPC: 0.475247 (Simulation time: 0 hr 2 min 19 sec) 
Heartbeat CPU 0 instructions: 80000000 cycles: 76435792 heartbeat IPC: 0.513309 cumulative IPC: 0.487291 (Simulation time: 0 hr 2 min 39 sec) 
Heartbeat CPU 0 instructions: 90000000 cycles: 106452876 heartbeat IPC: 0.333144 cumulative IPC: 0.436767 (Simulation time: 0 hr 3 min 4 sec) 
Heartbeat CPU 0 instructions: 100000002 cycles: 147210368 heartbeat IPC: 0.245354 cumulative IPC: 0.377816 (Simulation time: 0 hr 3 min 29 sec) 
Heartbeat CPU 0 instructions: 110000000 cycles: 187812155 heartbeat IPC: 0.246295 cumulative IPC: 0.346939 (Simulation time: 0 hr 3 min 55 sec) 
Heartbeat CPU 0 instructions: 120000000 cycles: 232477110 heartbeat IPC: 0.223889 cumulative IPC: 0.321682 (Simulation time: 0 hr 4 min 20 sec) 
Heartbeat CPU 0 instructions: 130000001 cycles: 268177064 heartbeat IPC: 0.280112 cumulative IPC: 0.315823 (Simulation time: 0 hr 4 min 41 sec) 
Heartbeat CPU 0 instructions: 140000002 cycles: 286382098 heartbeat IPC: 0.549299 cumulative IPC: 0.331478 (Simulation time: 0 hr 4 min 58 sec) 
Heartbeat CPU 0 instructions: 150000001 cycles: 301044431 heartbeat IPC: 0.68202 cumulative IPC: 0.349438 (Simulation time: 0 hr 5 min 15 sec) 
Heartbeat CPU 0 instructions: 160000000 cycles: 326945743 heartbeat IPC: 0.386081 cumulative IPC: 0.35248 (Simulation time: 0 hr 5 min 36 sec) 
Heartbeat CPU 0 instructions: 170000000 cycles: 367555821 heartbeat IPC: 0.246244 cumulative IPC: 0.340247 (Simulation time: 0 hr 6 min 2 sec) 
Heartbeat CPU 0 instructions: 180000000 cycles: 409027257 heartbeat IPC: 0.24113 cumulative IPC: 0.329818 (Simulation time: 0 hr 6 min 28 sec) 
Heartbeat CPU 0 instructions: 190000003 cycles: 452279926 heartbeat IPC: 0.2312 cumulative IPC: 0.320067 (Simulation time: 0 hr 6 min 53 sec) 
Heartbeat CPU 0 instructions: 200000002 cycles: 495446421 heartbeat IPC: 0.231661 cumulative IPC: 0.312126 (Simulation time: 0 hr 7 min 17 sec) 
Heartbeat CPU 0 instructions: 210000001 cycles: 520871736 heartbeat IPC: 0.393309 cumulative IPC: 0.316205 (Simulation time: 0 hr 7 min 36 sec) 
Heartbeat CPU 0 instructions: 220000000 cycles: 534500527 heartbeat IPC: 0.733741 cumulative IPC: 0.327156 (Simulation time: 0 hr 7 min 53 sec) 
Heartbeat CPU 0 instructions: 230000001 cycles: 556035186 heartbeat IPC: 0.464368 cumulative IPC: 0.332616 (Simulation time: 0 hr 8 min 12 sec) 
Heartbeat CPU 0 instructions: 240000000 cycles: 590100867 heartbeat IPC: 0.293551 cumulative IPC: 0.330303 (Simulation time: 0 hr 8 min 38 sec) 
Heartbeat CPU 0 instructions: 250000001 cycles: 628733907 heartbeat IPC: 0.258846 cumulative IPC: 0.325806 (Simulation time: 0 hr 9 min 4 sec) 
Finished CPU 0 instructions: 200000003 cycles: 613862943 cumulative IPC: 0.325806 (Simulation time: 0 hr 9 min 4 sec) 

ChampSim completed all CPUs

Region of Interest Statistics

CPU 0 cumulative IPC: 0.325806 instructions: 200000003 cycles: 613862943
ITLB TOTAL     ACCESS:   34748229  HIT:   34748229  MISS:          0  HIT %:        100  MISS %:          0   MPKI: 0
ITLB Test counter:          0
ITLB LOAD TRANSLATION ACCESS:   34748229  HIT:   34748229  MISS:          0  HIT %:        100  MISS %:          0   MPKI: 0
ITLB PREFETCH  REQUESTED:          0  ISSUED:          0  USEFUL:          0  USELESS:          0
ITLB USEFUL LOAD PREFETCHES:          0 PREFETCH ISSUED TO LOWER LEVEL:          0  ACCURACY: -nan
ITLB TIMELY PREFETCHES:          0 LATE PREFETCHES: 0 DROPPED PREFETCHES: 0
ITLB COMMIT LATE PREFETCHES: 0 MISSED OPPORTUNITY: 0 LATE IN PQ: 0 UNCOVERED: 0
ITLB COMMIT LATE MSHR PREFETCHES: 0
ITLB MPKI TOTAL: 0 MSHR LATE: 0 PQ LATE: 0 COMMIT LATE: 0 MISSED OPPORTUNITY: 0 UNCOVERED: 0
ITLB PREFETCHES SAME FILL-ORIGIN LEVEL: 0 DIFFERENT FILL-ORIGIN LEVEL: 0
ITLB AVERAGE MISS LATENCY: -nan cycles
ITLB AVERAGE MISS LATENCY LOAD: -nan cycles
ITLB AVERAGE MISS LATENCY PREFETCH: -nan cycles
ITLB AVERAGE MSHR OCCUPANCY: 0
ITLB MSHR FULL: 0
ITLB RQ	ACCESS:   43108542	FORWARD:          0	MERGED:    8360314	TO_CACHE:   34748228

DTLB TOTAL     ACCESS:   40410192  HIT:   40214945  MISS:     195247  HIT %:    99.5168  MISS %:   0.483163   MPKI: 0.976235
DTLB Test counter:          0
DTLB LOAD TRANSLATION ACCESS:   40410192  HIT:   40214945  MISS:     195247  HIT %:    99.5168  MISS %:   0.483163   MPKI: 0.976235
DTLB PREFETCH  REQUESTED:          0  ISSUED:          0  USEFUL:          0  USELESS:          0
DTLB USEFUL LOAD PREFETCHES:          0 PREFETCH ISSUED TO LOWER LEVEL:          0  ACCURACY: -nan
DTLB TIMELY PREFETCHES:          0 LATE PREFETCHES: 0 DROPPED PREFETCHES: 0
DTLB COMMIT LATE PREFETCHES: 0 MISSED OPPORTUNITY: 0 LATE IN PQ: 0 UNCOVERED: 0
DTLB COMMIT LATE MSHR PREFETCHES: 0
DTLB MPKI TOTAL: 0 MSHR LATE: 0 PQ LATE: 0 COMMIT LATE: 0 MISSED OPPORTUNITY: 0 UNCOVERED: 0
DTLB PREFETCHES SAME FILL-ORIGIN LEVEL: 0 DIFFERENT FILL-ORIGIN LEVEL: 0
DTLB AVERAGE MISS LATENCY: 54.002 cycles
DTLB AVERAGE MISS LATENCY LOAD: -nan cycles
DTLB AVERAGE MISS LATENCY PREFETCH: -nan cycles
DTLB AVERAGE MSHR OCCUPANCY: 0.00729427
DTLB MSHR FULL: 0
DTLB RQ	ACCESS:   42686837	FORWARD:          0	MERGED:    2265408	TO_CACHE:   40421429

STLB TOTAL     ACCESS:     195247  HIT:      52243  MISS:     143004  HIT %:    26.7574  MISS %:    73.2426   MPKI: 0.71502
STLB Test counter:          0
STLB LOAD TRANSLATION ACCESS:     195247  HIT:      52243  MISS:     143004  HIT %:    26.7574  MISS %:    73.2426   MPKI: 0.71502
STLB PREFETCH  REQUESTED:          0  ISSUED:          0  USEFUL:          0  USELESS:          0
STLB USEFUL LOAD PREFETCHES:          0 PREFETCH ISSUED TO LOWER LEVEL:          0  ACCURACY: -nan
STLB TIMELY PREFETCHES:          0 LATE PREFETCHES: 0 DROPPED PREFETCHES: 0
STLB COMMIT LATE PREFETCHES: 0 MISSED OPPORTUNITY: 0 LATE IN PQ: 0 UNCOVERED: 0
STLB COMMIT LATE MSHR PREFETCHES: 0
STLB MPKI TOTAL: 0 MSHR LATE: 0 PQ LATE: 0 COMMIT LATE: 0 MISSED OPPORTUNITY: 0 UNCOVERED: 0
STLB PREFETCHES SAME FILL-ORIGIN LEVEL: 0 DIFFERENT FILL-ORIGIN LEVEL: 0
STLB AVERAGE MISS LATENCY: 61.4277 cycles
STLB AVERAGE MISS LATENCY LOAD: -nan cycles
STLB AVERAGE MISS LATENCY PREFETCH: -nan cycles
STLB AVERAGE MSHR OCCUPANCY: 0.0370864
STLB MSHR FULL: 0
STLB RQ	ACCESS:     195247	FORWARD:          0	MERGED:          0	TO_CACHE:     195247

STLB Hit, L1D data hit: 0
STLB Hit, L2C data hit: 0
STLB Hit, LLC data hit: 0
STLB Hit, LLC data miss: 0
STLB STLB hints to L2: 0
L1D TOTAL     ACCESS:   41126155  HIT:   36334122  MISS:    4792033  HIT %:     88.348  MISS %:     11.652   MPKI: 23.9602
L1D Test counter:          0
L1D LOAD      ACCESS:   35661283  HIT:   31105526  MISS:    4918745  HIT %:    87.2249  MISS %:    12.7751   MPKI: 22.7788
L1D RFO       ACCESS:    5464872  HIT:    5228596  MISS:     236276  HIT %:    95.6765  MISS %:    4.32354   MPKI: 1.18138
L1D PREFETCH  REQUESTED:          0  ISSUED:          0  USEFUL:          0  USELESS:          0
L1D USEFUL LOAD PREFETCHES:          0 PREFETCH ISSUED TO LOWER LEVEL:          0  ACCURACY: -nan
L1D TIMELY PREFETCHES:          0 LATE PREFETCHES: 0 DROPPED PREFETCHES: 0
L1D COMMIT LATE PREFETCHES: 0 MISSED OPPORTUNITY: 0 LATE IN PQ: 0 UNCOVERED: 0
L1D COMMIT LATE MSHR PREFETCHES: 0
L1D MPKI TOTAL: 24.5937 MSHR LATE: 0 PQ LATE: 0 COMMIT LATE: 0 MISSED OPPORTUNITY: 0 UNCOVERED: 0
L1D PREFETCHES SAME FILL-ORIGIN LEVEL: 0 DIFFERENT FILL-ORIGIN LEVEL: 0
L1D AVERAGE MISS LATENCY: 46.0219 cycles
L1D AVERAGE MISS LATENCY LOAD: 39.8824 cycles
L1D AVERAGE MISS LATENCY PREFETCH: -nan cycles
L1D AVERAGE MSHR OCCUPANCY: 0.308433
L1D MSHR FULL: 0.00640306
L1D RQ	ACCESS:   48257923	FORWARD:          0	MERGED:   12196897	TO_CACHE:   36024271
L1D WQ	ACCESS:    6802601	FORWARD:      36755	MERGED:     140035	TO_CACHE:    6662566

L1D UNIQUE REGIONS ACCESSED: 0
L1D REGIONS CONFLICTS: 0
L1D Cross Page Prefetch Requests: 0
L1D Same Page Prefetch Requests: 0
L1D ROI Sum of L1D PQ occupancy: 0
L1D PREFETCHES PUSHED FROM L2C: 0
55ab23ccd850: 1
55ab23cd4cb3: 1
55ab23ccd88b: 1
153e14e5d57e: 1
55ab23ccd636: 2
55ab23ccd0eb: 2
153e14dfd530: 3
55ab23ccbaee: 3
153e14dc3040: 3
153e14dfd3cc: 3
153e14dfd3bc: 3
153e14ed4254: 3
153e14ed424b: 3
55ab23ccd5a7: 3
55ab23ccbb10: 3
153e14e53143: 3
55ab23ccbd13: 3
55ab23ccd327: 3
153e14ed4240: 3
55ab23ccbd26: 3
55ab23ccb330: 3
153e14e2d951: 3
153e14dfd3c3: 3
55ab23ccd56f: 3
153e14dfa86b: 3
55ab23ccbb1c: 3
55ab23ccd95f: 3
153e14e39d7f: 3
153e14e37123: 3
55ab23ccd914: 3
55ab23ccd5c0: 3
55ab23ccd5e8: 3
55ab23ccd28e: 3
55ab23ccd4fc: 3
55ab23ccd4ea: 3
55ab23ccd930: 3
153e14dfd67e: 3
55ab23ccbe00: 3
153e14dfd67a: 3
153e14ed4247: 3
153e14dfd5e5: 3
55ab23ccd603: 3
153e14dc3230: 3
55ab23ccbe73: 4
153e14e39c4f: 5
153e14e365f4: 5
55ab23ccd1b9: 5
55ab23ccd1b0: 5
153e14e365a7: 6
55ab23ccd0f3: 6
55ab23ccd866: 7
55ab23ccd789: 7
55ab23ccd7c7: 7
55ab23ccd782: 7
153e14e39d43: 7
153e14e5d6c3: 7
55ab23ccd7a1: 7
153e14e36f10: 9
153e14e39c45: 11
55ab23ccd054: 11
153e14e39971: 11
153e14e5d63e: 11
153e14e39c61: 12
153e14e5d672: 12
153e14e3999f: 12
153e14e36323: 12
153e14e36f73: 12
153e14e39a27: 12
153e14e39a09: 12
153e14e3658f: 12
153e14e36581: 12
153e14e364f8: 12
153e14e39c95: 12
153e14e39c6b: 12
153e14e36574: 12
153e14e39c88: 12
153e14e390e3: 12
153e14e390c1: 12
153e14e390cf: 12
153e14e399a6: 12
153e14e390af: 12
153e14e39076: 12
153e14e5d97f: 13
55ab23ccb430: 13
153e157d33f0: 14
153e14e3a31c: 14
55ab23ccb6a0: 14
153e14e39978: 14
153e14e39d1a: 15
153e157d2d00: 15
55ab23ccb5d0: 15
153e14e39961: 15
153e14e39e55: 15
153e14e3665b: 16
153e14e3998d: 18
55ab23ccb340: 18
153e14e368e8: 18
153e157d26d0: 20
153e14e3907d: 20
55ab23ccb690: 21
153e157d2b30: 21
7fffabbf5d75: 28
55ab23ccd032: 33
55ab23ccd09c: 35
55ab23ccd019: 37
55ab23ccd015: 67
55ab23ccd024: 145
55ab23ccd82f: 273
55ab23ccd83c: 278
55ab23ccd020: 1227
153e14e5d68a: 1858
153e14e5d67f: 4768
55ab23ccd2ba: 6147
55ab23ccd6c0: 6614
55ab23ccd838: 10395
55ab23ccd051: 10775
55ab23ccd6d7: 34311
55ab23ccd7fd: 46695
55ab23ccd063: 142947
55ab23ccd900: 196596
55ab23ccd7cb: 387857
55ab23ccd4a0: 393216
55ab23ccd80b: 446466
55ab23ccd7bd: 494516
55ab23ccd7cf: 595389
55ab23ccd7d9: 852195
55ab23ccd7e7: 922083
L1I TOTAL     ACCESS:   43108540  HIT:   43108525  MISS:         15  HIT %:        100  MISS %: 3.47959e-05   MPKI: 7.5e-05
L1I Test counter:          0
L1I LOAD      ACCESS:   43108540  HIT:   43108525  MISS:         16  HIT %:        100  MISS %: 3.47959e-05   MPKI: 7.5e-05
L1I PREFETCH  REQUESTED:          0  ISSUED:          0  USEFUL:          0  USELESS:          0
L1I USEFUL LOAD PREFETCHES:          0 PREFETCH ISSUED TO LOWER LEVEL:          0  ACCURACY: -nan
L1I TIMELY PREFETCHES:          0 LATE PREFETCHES: 0 DROPPED PREFETCHES: 0
L1I COMMIT LATE PREFETCHES: 0 MISSED OPPORTUNITY: 0 LATE IN PQ: 0 UNCOVERED: 0
L1I COMMIT LATE MSHR PREFETCHES: 0
L1I MPKI TOTAL: 8e-05 MSHR LATE: 0 PQ LATE: 0 COMMIT LATE: 0 MISSED OPPORTUNITY: 0 UNCOVERED: 0
L1I PREFETCHES SAME FILL-ORIGIN LEVEL: 0 DIFFERENT FILL-ORIGIN LEVEL: 0
L1I AVERAGE MISS LATENCY: 247.4 cycles
L1I AVERAGE MISS LATENCY LOAD: 247.4 cycles
L1I AVERAGE MISS LATENCY PREFETCH: -nan cycles
L1I AVERAGE MSHR OCCUPANCY: 1.15986e-07
L1I MSHR FULL: 0
L1I RQ	ACCESS:   67108429	FORWARD:          0	MERGED:   23999887	TO_CACHE:   43108542

153e14dff103: 1
153e14dff0db: 1
55ab23ccbb03: 1
55ab23ccbac1: 1
55ab23ccd180: 1
153e14e39cc1: 1
55ab23ccbcfd: 1
55ab23ccd947: 1
55ab23ccd281: 1
55ab23ccd8c4: 1
55ab23ccd260: 1
55ab23ccd1c0: 1
55ab23ccd303: 1
55ab23ccd2c2: 1
55ab23ccd900: 1
BTB TOTAL     ACCESS:   41351685  HIT:   41351332  MISS:        353  HIT %:    99.9991  MISS %: 0.000853653   MPKI: 0.001765
BTB Test counter:          0
BTB BRANCH_DIRECT_JUMP	ACCESS:       1976  HIT:       1931  MISS:         45
BTB BRANCH_INDIRECT	ACCESS:          3  HIT:          2  MISS:          1
BTB BRANCH_CONDITIONAL	ACCESS:   41349072  HIT:   41348968  MISS:        104
BTB BRANCH_DIRECT_CALL	ACCESS:        308  HIT:        265  MISS:         43
BTB BRANCH_INDIRECT_CALL	ACCESS:          9  HIT:          6  MISS:          3
BTB BRANCH_RETURN	ACCESS:        317  HIT:        160  MISS:        157
BTB BRANCH_OTHER ACCESS:          0  HIT:          0  MISS:          0

L2C TOTAL     ACCESS:    9576177  HIT:    5284140  MISS:    4292037  HIT %:    55.1801  MISS %:    44.8199   MPKI: 21.4602
L2C Test counter:          0
L2C LOAD      ACCESS:    4555772  HIT:    3713035  MISS:     842737  HIT %:    81.5018  MISS %:    18.4982   MPKI: 4.21368
L2C DATA LOAD MPKI: 4.21361
L2C INSTRUCTION LOAD MPKI: 7.5e-05
L2C RFO       ACCESS:     236276  HIT:       6506  MISS:     229770  HIT %:    2.75356  MISS %:    97.2464   MPKI: 1.14885
L2C PREFETCH  ACCESS:    3998890  HIT:     805897  MISS:    3192993  HIT %:     20.153  MISS %:     79.847   MPKI: 15.965
L2C DATA PREFETCH MPKI: 15.965
L2C INSTRUCTION PREFETCH MPKI: 0
L2C WRITEBACK ACCESS:     641350  HIT:     641335  MISS:         15  HIT %:    99.9977  MISS %: 0.00233882   MPKI: 7.5e-05
L2C LOAD TRANSLATION ACCESS:     143889  HIT:     117367  MISS:      26522  HIT %:    81.5677  MISS %:    18.4323   MPKI: 0.13261
L2C PREFETCH  REQUESTED:    4154119  ISSUED:    4154119  USEFUL:    2471096  USELESS:     720028
L2C USEFUL LOAD PREFETCHES:    2471096 PREFETCH ISSUED TO LOWER LEVEL:    3335108  ACCURACY: 74.0934
L2C TIMELY PREFETCHES:    2471096 LATE PREFETCHES: 71868 DROPPED PREFETCHES: 0
L2C COMMIT LATE PREFETCHES: 0 MISSED OPPORTUNITY: 0 LATE IN PQ: 0 UNCOVERED: 0
L2C COMMIT LATE MSHR PREFETCHES: 0
L2C MPKI TOTAL: 4.21368 MSHR LATE: 0.35934 PQ LATE: 0 COMMIT LATE: 0 MISSED OPPORTUNITY: 0 UNCOVERED: 0
L2C PREFETCHES SAME FILL-ORIGIN LEVEL: 3264865 DIFFERENT FILL-ORIGIN LEVEL: 70243
L2C AVERAGE MISS LATENCY: 146.399 cycles
L2C AVERAGE MISS LATENCY LOAD: 135.29 cycles
L2C AVERAGE MISS LATENCY PREFETCH: 148.369 cycles
L2C AVERAGE MSHR OCCUPANCY: 0.82108
L2C MSHR FULL: 0
L2C RQ	ACCESS:    4935937	FORWARD:          0	MERGED:          0	TO_CACHE:    4935937
L2C WQ	ACCESS:     641350	FORWARD:          0	MERGED:          0	TO_CACHE:     641350
L2C PQ	ACCESS:    4154119	FORWARD:          0	MERGED:       2011	TO_CACHE:    4152108

L2C Instructions Evicting Data 15
L2C Translations Evicting Data 26379
L2C Data Evicting Data 4239098
L2C Instructions Evicting Instructions 0
L2C Translations Evicting Instructions 0
L2C Data Evicting Instructions 15
L2C Instructions Evicting Translations 0
L2C Translations Evicting Translations 143
L2C Data Evicting Translations 26372
L2C Dense regions hint from L2: 0
153e14e365f4: 1
55ab23ccd180: 1
55ab23ccbac1: 1
55ab23ccd8c4: 1
55ab23ccd260: 1
153e14dff103: 1
55ab23ccd947: 1
55ab23ccd0eb: 1
55ab23ccd1c0: 1
55ab23ccd303: 1
153e14dff0db: 1
153e14e39cc1: 1
55ab23ccbb03: 1
55ab23ccd2c2: 1
55ab23ccbcfd: 1
55ab23ccd281: 1
153e14e2d951: 2
55ab23ccd0f3: 2
153e14e39d7f: 2
153e14e36f10: 3
55ab23ccd83c: 3
55ab23ccd82f: 3
153e14dfa86b: 3
153e14dfd3bc: 3
55ab23ccd4fc: 3
153e14dfd3c3: 3
55ab23ccb330: 3
153e14e365a7: 3
153e14dfd67a: 3
153e14ed4254: 3
153e14e53143: 3
55ab23ccbb10: 3
55ab23ccd28e: 3
55ab23ccd914: 3
153e14e39c4f: 3
153e14ed424b: 3
153e14e37123: 3
55ab23ccbaee: 3
153e14ed4247: 3
153e14dfd67e: 3
153e14dc3230: 3
55ab23ccd5c0: 3
55ab23ccd4ea: 3
153e14dfd5e5: 3
153e14e39d43: 3
153e14ed4240: 3
153e14dfd530: 3
55ab23ccbe00: 3
153e14dfd3cc: 3
153e14dc3040: 3
55ab23ccd7c7: 4
55ab23ccbe73: 4
153e14e39c6b: 5
55ab23ccd032: 5
153e14e39c95: 5
153e14e390e3: 6
153e14e39c45: 6
153e14e36f73: 6
153e14e36581: 6
153e14e39e55: 6
153e14e390c1: 6
153e14e3999f: 6
153e14e390cf: 6
153e14e39a09: 6
153e14e36574: 6
153e14e390af: 6
153e14e3658f: 6
153e14e39c88: 6
153e14e39076: 6
153e14e364f8: 6
153e14e39a27: 6
153e14e39c61: 6
153e14e399a6: 6
55ab23ccd09c: 6
55ab23ccb340: 6
153e14e39971: 6
153e14e36323: 6
55ab23ccd782: 7
153e14e5d63e: 7
55ab23ccb6a0: 7
55ab23ccd019: 7
55ab23ccd054: 7
55ab23ccd866: 7
55ab23ccd7a1: 7
153e14e3665b: 8
153e14e368e8: 9
153e14e3907d: 9
153e157d2b30: 9
153e14e3998d: 9
153e157d26d0: 9
55ab23ccb430: 10
55ab23ccd015: 10
153e14e39d1a: 10
153e14e39961: 11
153e14e5d672: 11
153e157d33f0: 12
153e14e39978: 12
55ab23ccb5d0: 12
153e14e3a31c: 12
153e157d2d00: 12
55ab23ccb690: 13
7fffabbf5d75: 16
55ab23ccd024: 138
55ab23ccd6c0: 147
55ab23ccd2ba: 161
153e14e5d68a: 836
55ab23ccd838: 1142
55ab23ccd020: 1204
55ab23ccd051: 1514
153e14e5d67f: 1855
55ab23ccd6d7: 3322
55ab23ccd900: 6542
55ab23ccd4a0: 8611
55ab23ccd7cb: 9021
55ab23ccd7fd: 11594
55ab23ccd7bd: 11703
55ab23ccd7cf: 13809
55ab23ccd80b: 37743
55ab23ccd7e7: 118934
55ab23ccd063: 124326
55ab23ccd7d9: 489622
PSCL5 TOTAL     ACCESS:     143004  HIT:     143004  MISS:          0  HIT %:        100  MISS %:          0   MPKI: 0
PSCL5 Test counter:          0
PSCL5 LOAD TRANSLATION ACCESS:     143004  HIT:     143004  MISS:          0  HIT %:        100  MISS %:          0   MPKI: 0
PSCL5 PREFETCH  REQUESTED:          0  ISSUED:          0  USEFUL:          0  USELESS:          0
PSCL5 USEFUL LOAD PREFETCHES:          0 PREFETCH ISSUED TO LOWER LEVEL:          0  ACCURACY: -nan
PSCL5 TIMELY PREFETCHES:          0 LATE PREFETCHES: 0 DROPPED PREFETCHES: 0
PSCL5 COMMIT LATE PREFETCHES: 0 MISSED OPPORTUNITY: 0 LATE IN PQ: 0 UNCOVERED: 0
PSCL5 COMMIT LATE MSHR PREFETCHES: 0
PSCL5 MPKI TOTAL: 0 MSHR LATE: 0 PQ LATE: 0 COMMIT LATE: 0 MISSED OPPORTUNITY: 0 UNCOVERED: 0
PSCL5 PREFETCHES SAME FILL-ORIGIN LEVEL: 0 DIFFERENT FILL-ORIGIN LEVEL: 0

PSCL4 TOTAL     ACCESS:     143004  HIT:     143004  MISS:          0  HIT %:        100  MISS %:          0   MPKI: 0
PSCL4 Test counter:          0
PSCL4 LOAD TRANSLATION ACCESS:     143004  HIT:     143004  MISS:          0  HIT %:        100  MISS %:          0   MPKI: 0
PSCL4 PREFETCH  REQUESTED:          0  ISSUED:          0  USEFUL:          0  USELESS:          0
PSCL4 USEFUL LOAD PREFETCHES:          0 PREFETCH ISSUED TO LOWER LEVEL:          0  ACCURACY: -nan
PSCL4 TIMELY PREFETCHES:          0 LATE PREFETCHES: 0 DROPPED PREFETCHES: 0
PSCL4 COMMIT LATE PREFETCHES: 0 MISSED OPPORTUNITY: 0 LATE IN PQ: 0 UNCOVERED: 0
PSCL4 COMMIT LATE MSHR PREFETCHES: 0
PSCL4 MPKI TOTAL: 0 MSHR LATE: 0 PQ LATE: 0 COMMIT LATE: 0 MISSED OPPORTUNITY: 0 UNCOVERED: 0
PSCL4 PREFETCHES SAME FILL-ORIGIN LEVEL: 0 DIFFERENT FILL-ORIGIN LEVEL: 0

PSCL3 TOTAL     ACCESS:     143004  HIT:     143004  MISS:          0  HIT %:        100  MISS %:          0   MPKI: 0
PSCL3 Test counter:          0
PSCL3 LOAD TRANSLATION ACCESS:     143004  HIT:     143004  MISS:          0  HIT %:        100  MISS %:          0   MPKI: 0
PSCL3 PREFETCH  REQUESTED:          0  ISSUED:          0  USEFUL:          0  USELESS:          0
PSCL3 USEFUL LOAD PREFETCHES:          0 PREFETCH ISSUED TO LOWER LEVEL:          0  ACCURACY: -nan
PSCL3 TIMELY PREFETCHES:          0 LATE PREFETCHES: 0 DROPPED PREFETCHES: 0
PSCL3 COMMIT LATE PREFETCHES: 0 MISSED OPPORTUNITY: 0 LATE IN PQ: 0 UNCOVERED: 0
PSCL3 COMMIT LATE MSHR PREFETCHES: 0
PSCL3 MPKI TOTAL: 0 MSHR LATE: 0 PQ LATE: 0 COMMIT LATE: 0 MISSED OPPORTUNITY: 0 UNCOVERED: 0
PSCL3 PREFETCHES SAME FILL-ORIGIN LEVEL: 0 DIFFERENT FILL-ORIGIN LEVEL: 0

PSCL2 TOTAL     ACCESS:     143004  HIT:     142119  MISS:        885  HIT %:    99.3811  MISS %:   0.618864   MPKI: 0.004425
PSCL2 Test counter:          0
PSCL2 LOAD TRANSLATION ACCESS:     143004  HIT:     142119  MISS:        885  HIT %:    99.3811  MISS %:   0.618864   MPKI: 0.004425
PSCL2 PREFETCH  REQUESTED:          0  ISSUED:          0  USEFUL:          0  USELESS:          0
PSCL2 USEFUL LOAD PREFETCHES:          0 PREFETCH ISSUED TO LOWER LEVEL:          0  ACCURACY: -nan
PSCL2 TIMELY PREFETCHES:          0 LATE PREFETCHES: 0 DROPPED PREFETCHES: 0
PSCL2 COMMIT LATE PREFETCHES: 0 MISSED OPPORTUNITY: 0 LATE IN PQ: 0 UNCOVERED: 0
PSCL2 COMMIT LATE MSHR PREFETCHES: 0
PSCL2 MPKI TOTAL: 0 MSHR LATE: 0 PQ LATE: 0 COMMIT LATE: 0 MISSED OPPORTUNITY: 0 UNCOVERED: 0
PSCL2 PREFETCHES SAME FILL-ORIGIN LEVEL: 0 DIFFERENT FILL-ORIGIN LEVEL: 0

LLC TOTAL     ACCESS:    4972534  HIT:     851354  MISS:    4121180  HIT %:    17.1211  MISS %:    82.8789   MPKI: 20.6059
LLC Test counter:          0
LLC LOAD      ACCESS:     770869  HIT:     173123  MISS:     597746  HIT %:    22.4582  MISS %:    77.5418   MPKI: 2.98873
LLC RFO       ACCESS:     229770  HIT:       4734  MISS:     225036  HIT %:    2.06032  MISS %:    97.9397   MPKI: 1.12518
LLC PREFETCH  ACCESS:    3333056  HIT:      64743  MISS:    3268313  HIT %:    1.94245  MISS %:    98.0575   MPKI: 16.3416
LLC WRITEBACK ACCESS:     612317  HIT:     608056  MISS:       4261  HIT %:    99.3041  MISS %:   0.695881   MPKI: 0.021305
LLC LOAD TRANSLATION ACCESS:      26522  HIT:        698  MISS:      25824  HIT %:    2.63178  MISS %:    97.3682   MPKI: 0.12912
LLC PREFETCH  REQUESTED:          0  ISSUED:          0  USEFUL:      15753  USELESS:    3250448
LLC USEFUL LOAD PREFETCHES:      15753 PREFETCH ISSUED TO LOWER LEVEL:    3269637  ACCURACY: 0.481797
LLC TIMELY PREFETCHES:      15753 LATE PREFETCHES: 1322 DROPPED PREFETCHES: 0
LLC COMMIT LATE PREFETCHES: 0 MISSED OPPORTUNITY: 0 LATE IN PQ: 0 UNCOVERED: 0
LLC COMMIT LATE MSHR PREFETCHES: 0
LLC MPKI TOTAL: 2.98873 MSHR LATE: 0.00661 PQ LATE: 0 COMMIT LATE: 0 MISSED OPPORTUNITY: 0 UNCOVERED: 0
LLC PREFETCHES SAME FILL-ORIGIN LEVEL: 41807 DIFFERENT FILL-ORIGIN LEVEL: 0
LLC AVERAGE MISS LATENCY: 123.894 cycles
LLC AVERAGE MISS LATENCY LOAD: 138.123 cycles
LLC AVERAGE MISS LATENCY PREFETCH: 120.896 cycles
LLC AVERAGE MSHR OCCUPANCY: 0.932258
LLC MSHR FULL: 0
LLC RQ	ACCESS:    1027161	FORWARD:          0	MERGED:          0	TO_CACHE:    1027161
LLC WQ	ACCESS:     612317	FORWARD:          0	MERGED:          0	TO_CACHE:     612317
LLC PQ	ACCESS:    3335108	FORWARD:          0	MERGED:        344	TO_CACHE:    3334764

LLC Dense regions hint to LLC: 0
55ab23ccbcfd: 1
55ab23ccd281: 1
55ab23ccd180: 1
153e14e365f4: 1
55ab23ccd260: 1
55ab23ccd947: 1
55ab23ccd2c2: 1
153e14dff0db: 1
55ab23ccd303: 1
153e14dff103: 1
55ab23ccd1c0: 1
55ab23ccbac1: 1
55ab23ccd8c4: 1
55ab23ccd015: 1
153e14e39cc1: 1
55ab23ccbb03: 1
153e14e2d951: 2
153e14e39d7f: 2
55ab23ccd83c: 2
153e14e5d63e: 2
153e14dfd3cc: 2
55ab23ccb6a0: 2
153e14e53143: 3
153e14e39c6b: 3
55ab23ccbe00: 3
153e14ed424b: 3
153e14e39c4f: 3
153e14e36f10: 3
55ab23ccd914: 3
55ab23ccd28e: 3
153e14e39d43: 3
55ab23ccbb10: 3
153e14dfa86b: 3
55ab23ccd4fc: 3
153e14ed4254: 3
55ab23ccd5c0: 3
153e14dfd67a: 3
153e14dfd3c3: 3
153e14e365a7: 3
55ab23ccd4ea: 3
153e14dfd530: 3
153e14dc3040: 3
153e14dfd67e: 3
153e14dc3230: 3
153e14ed4247: 3
55ab23ccb330: 3
55ab23ccbaee: 3
55ab23ccd7c7: 3
153e14e37123: 3
153e14dfd3bc: 3
153e14ed4240: 3
153e14dfd5e5: 3
55ab23ccd054: 4
55ab23ccbe73: 4
55ab23ccd7a1: 4
55ab23ccd782: 5
153e14e39c95: 5
153e14e39e55: 5
153e14e39971: 6
153e14e39c88: 6
153e14e3658f: 6
153e14e3999f: 6
153e14e39c45: 6
153e14e5d672: 6
153e14e36581: 6
153e14e39c61: 6
153e14e39a27: 6
153e14e364f8: 6
153e14e36574: 6
55ab23ccb340: 6
153e14e399a6: 6
153e14e39076: 6
153e14e390af: 6
153e14e36323: 6
153e14e390cf: 6
153e14e390e3: 6
153e14e390c1: 6
153e14e39a09: 6
153e14e36f73: 6
55ab23ccd866: 7
153e157d2b30: 8
153e14e3665b: 8
153e14e3998d: 8
153e14e39d1a: 8
153e157d26d0: 9
153e14e368e8: 9
153e14e3907d: 9
153e14e39961: 10
55ab23ccb430: 10
153e14e39978: 11
55ab23ccb5d0: 11
153e14e3a31c: 11
153e14e5d68a: 12
153e157d33f0: 12
153e157d2d00: 12
55ab23ccb690: 13
7fffabbf5d75: 16
55ab23ccd6c0: 58
55ab23ccd024: 111
153e14e5d67f: 112
55ab23ccd2ba: 156
55ab23ccd838: 980
55ab23ccd020: 1053
55ab23ccd051: 1349
55ab23ccd6d7: 1987
55ab23ccd900: 4840
55ab23ccd80b: 7166
55ab23ccd4a0: 8525
55ab23ccd7fd: 8852
55ab23ccd7cb: 8988
55ab23ccd7bd: 11679
55ab23ccd7cf: 13769
55ab23ccd7e7: 22920
55ab23ccd063: 76478
55ab23ccd7d9: 428268

RAW hits: 221888
Loads Generated: 48479811
Loads sent to L1D: 48257923
Stores Generated: 6802601
Stores sent to L1D: 6802601
Major fault: 0 Minor fault: 27134
Allocated PAGES: 27134
Total Load insts: 61255560
Total Non-spec loads: 14361625
Percentage of speculative loads: 76.5546
L1D response latency: 39.8824 cycles
Load retirement latency: 59.7796 cycles

------------------
Depth Distribution
------------------
depth 0: 1777323
depth 1: 793018
depth 2: 673299
depth 3: 598284
depth 4: 395288
depth 5: 9699
depth 6: 15479
depth 7: 163421
depth 8: 323513
depth 9: 140421
depth 10: 32109
depth 11: 252043
depth 12: 327165
depth 13: 61835
depth 14: 457093
depth 15: 70265
depth 16: 53813
depth 17: 24994
depth 18: 15281
depth 19: 1779
depth 20: 115
depth 21: 16
depth 22: 0
depth 23: 0
depth 24: 1
depth 25: 0
depth 26: 0
depth 27: 1
depth 28: 0
depth 29: 0
Total: 6186255
------------------
ST read accesses: 4382195
ST write accesses: 173562
PT read accesses: 147363039
PT write accesses: 6457811
FILTER read accesses: 32252570
FILTER write accesses: 15671076
GHR read accesses: 13816901
GHR write accesses: 2173121
PERC read accesses: 985845861
PERC write accesses: 39747434
GHR counter read accesses: 9111514
GHR counter write accesses: 11679253
GHR ip read accesses: 26859498
GHR ip write accesses: 18223028
ST tag read accesses: 1839806355
ST tag write accesses: 82503785

DRAM Statistics
 CHANNEL 0
 RQ ROW_BUFFER_HIT:    2176380  ROW_BUFFER_MISS:    1940513
 DBUS_CONGESTED:       3075
 WQ ROW_BUFFER_HIT:     145674  ROW_BUFFER_MISS:     449171  FULL:          0

 AVG_CONGESTED_CYCLE: 4
 All warmup complete: 2
Channel 0 Bank busy for read cycles: 0
Channel 0 Bank busy for write cycles: 0
Channel 0
Rank 0
0banks busy for read cycles: 318752960
0banks busy for write cycles: 265326
1banks busy for read cycles: 137366706
1banks busy for write cycles: 38307635
2banks busy for read cycles: 57605609
2banks busy for write cycles: 11125604
3banks busy for read cycles: 22410825
3banks busy for write cycles: 4137152
4banks busy for read cycles: 9452508
4banks busy for write cycles: 1834230
5banks busy for read cycles: 3484184
5banks busy for write cycles: 1154939
6banks busy for read cycles: 1690036
6banks busy for write cycles: 826809
7banks busy for read cycles: 759810
7banks busy for write cycles: 780307
8banks busy for read cycles: 1195034
8banks busy for write cycles: 2713270

CPU 0 Branch Prediction Accuracy: 86.6486% MPKI: 29.0033 Average ROB Occupancy at Mispredict: 8.20301
Branch types
NOT_BRANCH: 156554109 78.2771%
BRANCH_DIRECT_JUMP: 1976 0.000988%
BRANCH_INDIRECT: 3 1.5e-06%
BRANCH_CONDITIONAL: 43443281 21.7216%
BRANCH_DIRECT_CALL: 308 0.000154%
BRANCH_INDIRECT_CALL: 9 4.5e-06%
BRANCH_RETURN: 317 0.0001585%
BRANCH_OTHER: 0 0%

DRAM PAGES: 1048576
Allocated PAGES: 27134
