Initialize SIGNATURE TABLE
ST_SET: 1
ST_WAY: 256
ST_TAG_BIT: 16
ST_TAG_MASK: ffff

Initialize PATTERN TABLE
PT_SET: 512
PT_WAY: 4
SIG_DELTA_BIT: 7
C_SIG_BIT: 4
C_DELTA_BIT: 4

Initialize PREFETCH FILTER
FILTER_SET: 1024

Initialize PERCEPTRON
PERC_ENTRIES: 4096
PERC_FEATURES: 9

*** ChampSim Multicore Out-of-Order Simulator ***

Warmup Instructions: 50000000
Simulation Instructions: 200000000
Number of CPUs: 1
LLC sets: 2048
LLC ways: 16
Secure Berti: OFF
Berti: OFF
Berti Fill: OFF
On commit prefetching: OFF
L2 LLC Bypass speculative loads: OFF
Off-chip DRAM Size: 4096 MB Channels: 1 Width: 64-bit Data Rate: 6400 MT/s
CPU 0 runs /home/sumon/secure_berti/Berti_Baseline/../../traces/gap/cc-13.trace.gz
.gz
BTB has LRU replacement policy
ITLB has LRU replacement policy
DTLB has LRU replacement policy
STLB has LRU replacement policy
L1I has LRU replacement policy
L1D has LRU replacement policy
PERC_ENTRIES: 4096
L2C has LRU replacement policy
LLC has LRU replacement policy
Heartbeat CPU 0 instructions: 10000003 cycles: 2971566 heartbeat IPC: 3.36523 cumulative IPC: 3.36523 (Simulation time: 0 hr 0 min 19 sec) 
Heartbeat CPU 0 instructions: 20000000 cycles: 5904855 heartbeat IPC: 3.40914 cumulative IPC: 3.38704 (Simulation time: 0 hr 0 min 41 sec) 
Heartbeat CPU 0 instructions: 30000003 cycles: 8842533 heartbeat IPC: 3.40405 cumulative IPC: 3.39269 (Simulation time: 0 hr 1 min 2 sec) 
Heartbeat CPU 0 instructions: 40000001 cycles: 11782424 heartbeat IPC: 3.40149 cumulative IPC: 3.39489 (Simulation time: 0 hr 1 min 22 sec) 
Heartbeat CPU 0 instructions: 50000001 cycles: 14727938 heartbeat IPC: 3.39499 cumulative IPC: 3.39491 (Simulation time: 0 hr 1 min 43 sec) 

Warmup complete CPU 0 instructions: 50000001 cycles: 14727938 (Simulation time: 0 hr 1 min 43 sec) 

Heartbeat CPU 0 instructions: 60000000 cycles: 65389461 heartbeat IPC: 0.197388 cumulative IPC: 0.197388 (Simulation time: 0 hr 2 min 17 sec) 
Heartbeat CPU 0 instructions: 70000000 cycles: 114156832 heartbeat IPC: 0.205055 cumulative IPC: 0.201149 (Simulation time: 0 hr 2 min 52 sec) 
Heartbeat CPU 0 instructions: 80000002 cycles: 162901508 heartbeat IPC: 0.205151 cumulative IPC: 0.202465 (Simulation time: 0 hr 3 min 28 sec) 
Heartbeat CPU 0 instructions: 90000003 cycles: 211987680 heartbeat IPC: 0.203723 cumulative IPC: 0.202778 (Simulation time: 0 hr 4 min 6 sec) 
Heartbeat CPU 0 instructions: 100000001 cycles: 258778341 heartbeat IPC: 0.213718 cumulative IPC: 0.204876 (Simulation time: 0 hr 4 min 45 sec) 
Heartbeat CPU 0 instructions: 110000000 cycles: 305277271 heartbeat IPC: 0.215059 cumulative IPC: 0.206505 (Simulation time: 0 hr 5 min 24 sec) 
Heartbeat CPU 0 instructions: 120000000 cycles: 351955360 heartbeat IPC: 0.214233 cumulative IPC: 0.207575 (Simulation time: 0 hr 6 min 3 sec) 
Heartbeat CPU 0 instructions: 130000000 cycles: 400459378 heartbeat IPC: 0.206168 cumulative IPC: 0.207398 (Simulation time: 0 hr 6 min 42 sec) 
Heartbeat CPU 0 instructions: 140000002 cycles: 448496350 heartbeat IPC: 0.208173 cumulative IPC: 0.207484 (Simulation time: 0 hr 7 min 21 sec) 
Heartbeat CPU 0 instructions: 150000000 cycles: 492853764 heartbeat IPC: 0.225441 cumulative IPC: 0.20915 (Simulation time: 0 hr 8 min 1 sec) 
Heartbeat CPU 0 instructions: 160000002 cycles: 539790810 heartbeat IPC: 0.213051 cumulative IPC: 0.209499 (Simulation time: 0 hr 8 min 41 sec) 
Heartbeat CPU 0 instructions: 170000000 cycles: 587187295 heartbeat IPC: 0.210986 cumulative IPC: 0.209622 (Simulation time: 0 hr 9 min 21 sec) 
Heartbeat CPU 0 instructions: 180000003 cycles: 634281998 heartbeat IPC: 0.212338 cumulative IPC: 0.209828 (Simulation time: 0 hr 10 min 1 sec) 
Heartbeat CPU 0 instructions: 190000002 cycles: 681144500 heartbeat IPC: 0.21339 cumulative IPC: 0.210079 (Simulation time: 0 hr 10 min 39 sec) 
Heartbeat CPU 0 instructions: 200000000 cycles: 728420114 heartbeat IPC: 0.211525 cumulative IPC: 0.210175 (Simulation time: 0 hr 11 min 18 sec) 
Heartbeat CPU 0 instructions: 210000002 cycles: 774068965 heartbeat IPC: 0.219064 cumulative IPC: 0.210709 (Simulation time: 0 hr 11 min 57 sec) 
Heartbeat CPU 0 instructions: 220000000 cycles: 821976430 heartbeat IPC: 0.208736 cumulative IPC: 0.210592 (Simulation time: 0 hr 12 min 35 sec) 
Heartbeat CPU 0 instructions: 230000000 cycles: 867911306 heartbeat IPC: 0.2177 cumulative IPC: 0.210975 (Simulation time: 0 hr 13 min 13 sec) 
Heartbeat CPU 0 instructions: 240000000 cycles: 915308663 heartbeat IPC: 0.210982 cumulative IPC: 0.210975 (Simulation time: 0 hr 13 min 52 sec) 
Heartbeat CPU 0 instructions: 250000000 cycles: 961563450 heartbeat IPC: 0.216194 cumulative IPC: 0.21123 (Simulation time: 0 hr 14 min 29 sec) 
Finished CPU 0 instructions: 200000003 cycles: 946835513 cumulative IPC: 0.21123 (Simulation time: 0 hr 14 min 29 sec) 

ChampSim completed all CPUs

Region of Interest Statistics

CPU 0 cumulative IPC: 0.21123 instructions: 200000003 cycles: 946835513
ITLB TOTAL     ACCESS:   31274464  HIT:   31274464  MISS:          0  HIT %:        100  MISS %:          0   MPKI: 0
ITLB Test counter:          0
ITLB LOAD TRANSLATION ACCESS:   31274464  HIT:   31274464  MISS:          0  HIT %:        100  MISS %:          0   MPKI: 0
ITLB PREFETCH  REQUESTED:          0  ISSUED:          0  USEFUL:          0  USELESS:          0
ITLB USEFUL LOAD PREFETCHES:          0 PREFETCH ISSUED TO LOWER LEVEL:          0  ACCURACY: -nan
ITLB TIMELY PREFETCHES:          0 LATE PREFETCHES: 0 DROPPED PREFETCHES: 0
ITLB COMMIT LATE PREFETCHES: 0 MISSED OPPORTUNITY: 0 LATE IN PQ: 0 UNCOVERED: 0
ITLB COMMIT LATE MSHR PREFETCHES: 0
ITLB MPKI TOTAL: 0 MSHR LATE: 0 PQ LATE: 0 COMMIT LATE: 0 MISSED OPPORTUNITY: 0 UNCOVERED: 0
ITLB PREFETCHES SAME FILL-ORIGIN LEVEL: 0 DIFFERENT FILL-ORIGIN LEVEL: 0
ITLB AVERAGE MISS LATENCY: -nan cycles
ITLB AVERAGE MISS LATENCY LOAD: -nan cycles
ITLB AVERAGE MISS LATENCY PREFETCH: -nan cycles
ITLB AVERAGE MSHR OCCUPANCY: 0
ITLB MSHR FULL: 0
ITLB RQ	ACCESS:   31743151	FORWARD:          0	MERGED:     468688	TO_CACHE:   31274463

DTLB TOTAL     ACCESS:   41373874  HIT:   31332641  MISS:   10041233  HIT %:    75.7305  MISS %:    24.2695   MPKI: 50.2062
DTLB Test counter:          0
DTLB LOAD TRANSLATION ACCESS:   41373874  HIT:   31332641  MISS:   10041233  HIT %:    75.7305  MISS %:    24.2695   MPKI: 50.2062
DTLB PREFETCH  REQUESTED:          0  ISSUED:          0  USEFUL:          0  USELESS:          0
DTLB USEFUL LOAD PREFETCHES:          0 PREFETCH ISSUED TO LOWER LEVEL:          0  ACCURACY: -nan
DTLB TIMELY PREFETCHES:          0 LATE PREFETCHES: 0 DROPPED PREFETCHES: 0
DTLB COMMIT LATE PREFETCHES: 0 MISSED OPPORTUNITY: 0 LATE IN PQ: 0 UNCOVERED: 0
DTLB COMMIT LATE MSHR PREFETCHES: 0
DTLB MPKI TOTAL: 0 MSHR LATE: 0 PQ LATE: 0 COMMIT LATE: 0 MISSED OPPORTUNITY: 0 UNCOVERED: 0
DTLB PREFETCHES SAME FILL-ORIGIN LEVEL: 0 DIFFERENT FILL-ORIGIN LEVEL: 0
DTLB AVERAGE MISS LATENCY: 9.56062 cycles
DTLB AVERAGE MISS LATENCY LOAD: -nan cycles
DTLB AVERAGE MISS LATENCY PREFETCH: -nan cycles
DTLB AVERAGE MSHR OCCUPANCY: 0.301854
DTLB MSHR FULL: 0.00227095
DTLB RQ	ACCESS:   43328176	FORWARD:          0	MERGED:    1905041	TO_CACHE:   41423135

STLB TOTAL     ACCESS:   10041233  HIT:   10026213  MISS:      15020  HIT %:    99.8504  MISS %:   0.149583   MPKI: 0.0751
STLB Test counter:          0
STLB LOAD TRANSLATION ACCESS:   10041233  HIT:   10026213  MISS:      15020  HIT %:    99.8504  MISS %:   0.149583   MPKI: 0.0751
STLB PREFETCH  REQUESTED:          0  ISSUED:          0  USEFUL:          0  USELESS:          0
STLB USEFUL LOAD PREFETCHES:          0 PREFETCH ISSUED TO LOWER LEVEL:          0  ACCURACY: -nan
STLB TIMELY PREFETCHES:          0 LATE PREFETCHES: 0 DROPPED PREFETCHES: 0
STLB COMMIT LATE PREFETCHES: 0 MISSED OPPORTUNITY: 0 LATE IN PQ: 0 UNCOVERED: 0
STLB COMMIT LATE MSHR PREFETCHES: 0
STLB MPKI TOTAL: 0 MSHR LATE: 0 PQ LATE: 0 COMMIT LATE: 0 MISSED OPPORTUNITY: 0 UNCOVERED: 0
STLB PREFETCHES SAME FILL-ORIGIN LEVEL: 0 DIFFERENT FILL-ORIGIN LEVEL: 0
STLB AVERAGE MISS LATENCY: 138.449 cycles
STLB AVERAGE MISS LATENCY LOAD: -nan cycles
STLB AVERAGE MISS LATENCY PREFETCH: -nan cycles
STLB AVERAGE MSHR OCCUPANCY: 0.000741044
STLB MSHR FULL: 0
STLB RQ	ACCESS:   10041233	FORWARD:          0	MERGED:          0	TO_CACHE:   10041233

STLB Hit, L1D data hit: 0
STLB Hit, L2C data hit: 0
STLB Hit, LLC data hit: 0
STLB Hit, LLC data miss: 0
STLB STLB hints to L2: 0
L1D TOTAL     ACCESS:   42957875  HIT:   27692338  MISS:   15265537  HIT %:    64.4639  MISS %:    35.5361   MPKI: 76.3277
L1D Test counter:          0
L1D LOAD      ACCESS:   42710830  HIT:   27445293  MISS:   15635839  HIT %:    64.2584  MISS %:    35.7416   MPKI: 76.3277
L1D RFO       ACCESS:     247045  HIT:     247045  MISS:          0  HIT %:        100  MISS %:          0   MPKI: 0
L1D PREFETCH  REQUESTED:          0  ISSUED:          0  USEFUL:          0  USELESS:          0
L1D USEFUL LOAD PREFETCHES:          0 PREFETCH ISSUED TO LOWER LEVEL:          0  ACCURACY: -nan
L1D TIMELY PREFETCHES:          0 LATE PREFETCHES: 0 DROPPED PREFETCHES: 0
L1D COMMIT LATE PREFETCHES: 0 MISSED OPPORTUNITY: 0 LATE IN PQ: 0 UNCOVERED: 0
L1D COMMIT LATE MSHR PREFETCHES: 0
L1D MPKI TOTAL: 78.1792 MSHR LATE: 0 PQ LATE: 0 COMMIT LATE: 0 MISSED OPPORTUNITY: 0 UNCOVERED: 0
L1D PREFETCHES SAME FILL-ORIGIN LEVEL: 0 DIFFERENT FILL-ORIGIN LEVEL: 0
L1D AVERAGE MISS LATENCY: 74.1241 cycles
L1D AVERAGE MISS LATENCY LOAD: 74.1241 cycles
L1D AVERAGE MISS LATENCY PREFETCH: -nan cycles
L1D AVERAGE MSHR OCCUPANCY: 1.30431
L1D MSHR FULL: 0
L1D RQ	ACCESS:   55702856	FORWARD:          0	MERGED:   12621156	TO_CACHE:   43081131
L1D WQ	ACCESS:     247045	FORWARD:        569	MERGED:          0	TO_CACHE:     247045

L1D UNIQUE REGIONS ACCESSED: 0
L1D REGIONS CONFLICTS: 0
L1D Cross Page Prefetch Requests: 0
L1D Same Page Prefetch Requests: 0
L1D ROI Sum of L1D PQ occupancy: 0
L1D PREFETCHES PUSHED FROM L2C: 0
55cf028a1244: 3474
55cf028a1240: 3559
55cf028a1263: 30037
55cf028a1248: 60581
55cf028a127b: 608694
55cf028a1260: 900728
55cf028a1266: 13658464
L1I TOTAL     ACCESS:   31743152  HIT:   31743152  MISS:          0  HIT %:        100  MISS %:          0   MPKI: 0
L1I Test counter:          0
L1I LOAD      ACCESS:   31743152  HIT:   31743152  MISS:          0  HIT %:        100  MISS %:          0   MPKI: 0
L1I PREFETCH  REQUESTED:          0  ISSUED:          0  USEFUL:          0  USELESS:          0
L1I USEFUL LOAD PREFETCHES:          0 PREFETCH ISSUED TO LOWER LEVEL:          0  ACCURACY: -nan
L1I TIMELY PREFETCHES:          0 LATE PREFETCHES: 0 DROPPED PREFETCHES: 0
L1I COMMIT LATE PREFETCHES: 0 MISSED OPPORTUNITY: 0 LATE IN PQ: 0 UNCOVERED: 0
L1I COMMIT LATE MSHR PREFETCHES: 0
L1I MPKI TOTAL: 0 MSHR LATE: 0 PQ LATE: 0 COMMIT LATE: 0 MISSED OPPORTUNITY: 0 UNCOVERED: 0
L1I PREFETCHES SAME FILL-ORIGIN LEVEL: 0 DIFFERENT FILL-ORIGIN LEVEL: 0
L1I AVERAGE MISS LATENCY: -nan cycles
L1I AVERAGE MISS LATENCY LOAD: -nan cycles
L1I AVERAGE MISS LATENCY PREFETCH: -nan cycles
L1I AVERAGE MSHR OCCUPANCY: 0
L1I MSHR FULL: 0
L1I RQ	ACCESS:   56205217	FORWARD:          0	MERGED:   24462066	TO_CACHE:   31743151

BTB TOTAL     ACCESS:   40650073  HIT:   40650068  MISS:          5  HIT %:        100  MISS %: 1.23001e-05   MPKI: 2.5e-05
BTB Test counter:          0
BTB BRANCH_DIRECT_JUMP	ACCESS:          0  HIT:          0  MISS:          0
BTB BRANCH_INDIRECT	ACCESS:          0  HIT:          0  MISS:          0
BTB BRANCH_CONDITIONAL	ACCESS:   40650073  HIT:   40650068  MISS:          5
BTB BRANCH_DIRECT_CALL	ACCESS:          0  HIT:          0  MISS:          0
BTB BRANCH_INDIRECT_CALL	ACCESS:          0  HIT:          0  MISS:          0
BTB BRANCH_RETURN	ACCESS:          0  HIT:          0  MISS:          0
BTB BRANCH_OTHER ACCESS:          0  HIT:          0  MISS:          0

L2C TOTAL     ACCESS:   17125324  HIT:    6007882  MISS:   11117442  HIT %:    35.0819  MISS %:    64.9181   MPKI: 55.5872
L2C Test counter:          0
L2C LOAD      ACCESS:   15265537  HIT:    5557894  MISS:    9707644  HIT %:    36.4081  MISS %:    63.5919   MPKI: 48.5382
L2C DATA LOAD MPKI: 48.5382
L2C INSTRUCTION LOAD MPKI: 0
L2C PREFETCH  ACCESS:    1648887  HIT:     241836  MISS:    1407051  HIT %:    14.6666  MISS %:    85.3334   MPKI: 7.03525
L2C DATA PREFETCH MPKI: 7.03525
L2C INSTRUCTION PREFETCH MPKI: 0
L2C WRITEBACK ACCESS:     195880  HIT:     195757  MISS:        123  HIT %:    99.9372  MISS %:  0.0627935   MPKI: 0.000615
L2C LOAD TRANSLATION ACCESS:      15020  HIT:      12395  MISS:       2625  HIT %:    82.5233  MISS %:    17.4767   MPKI: 0.013125
L2C PREFETCH  REQUESTED:    2391128  ISSUED:    2391128  USEFUL:    1014406  USELESS:     392580
L2C USEFUL LOAD PREFETCHES:    1014406 PREFETCH ISSUED TO LOWER LEVEL:    2111674  ACCURACY: 48.038
L2C TIMELY PREFETCHES:    1014406 LATE PREFETCHES: 31770 DROPPED PREFETCHES: 0
L2C COMMIT LATE PREFETCHES: 0 MISSED OPPORTUNITY: 0 LATE IN PQ: 0 UNCOVERED: 0
L2C COMMIT LATE MSHR PREFETCHES: 0
L2C MPKI TOTAL: 48.5382 MSHR LATE: 0.15885 PQ LATE: 0 COMMIT LATE: 0 MISSED OPPORTUNITY: 0 UNCOVERED: 0
L2C PREFETCHES SAME FILL-ORIGIN LEVEL: 1438821 DIFFERENT FILL-ORIGIN LEVEL: 672853
L2C AVERAGE MISS LATENCY: 103.046 cycles
L2C AVERAGE MISS LATENCY LOAD: 92.7697 cycles
L2C AVERAGE MISS LATENCY PREFETCH: 173.85 cycles
L2C AVERAGE MSHR OCCUPANCY: 1.57772
L2C MSHR FULL: 0
L2C RQ	ACCESS:   15280558	FORWARD:          0	MERGED:          0	TO_CACHE:   15280558
L2C WQ	ACCESS:     195880	FORWARD:          0	MERGED:          0	TO_CACHE:     195880
L2C PQ	ACCESS:    2391128	FORWARD:          0	MERGED:       3082	TO_CACHE:    2388046

L2C Instructions Evicting Data 0
L2C Translations Evicting Data 2625
L2C Data Evicting Data 11112068
L2C Instructions Evicting Instructions 0
L2C Translations Evicting Instructions 0
L2C Data Evicting Instructions 0
L2C Instructions Evicting Translations 0
L2C Translations Evicting Translations 0
L2C Data Evicting Translations 2626
L2C Dense regions hint from L2: 0
55cf028a1244: 102
55cf028a1240: 220
55cf028a1248: 4468
55cf028a1263: 9603
55cf028a1260: 16832
55cf028a127b: 157949
55cf028a1266: 9518469
PSCL5 TOTAL     ACCESS:      15020  HIT:      15020  MISS:          0  HIT %:        100  MISS %:          0   MPKI: 0
PSCL5 Test counter:          0
PSCL5 LOAD TRANSLATION ACCESS:      15020  HIT:      15020  MISS:          0  HIT %:        100  MISS %:          0   MPKI: 0
PSCL5 PREFETCH  REQUESTED:          0  ISSUED:          0  USEFUL:          0  USELESS:          0
PSCL5 USEFUL LOAD PREFETCHES:          0 PREFETCH ISSUED TO LOWER LEVEL:          0  ACCURACY: -nan
PSCL5 TIMELY PREFETCHES:          0 LATE PREFETCHES: 0 DROPPED PREFETCHES: 0
PSCL5 COMMIT LATE PREFETCHES: 0 MISSED OPPORTUNITY: 0 LATE IN PQ: 0 UNCOVERED: 0
PSCL5 COMMIT LATE MSHR PREFETCHES: 0
PSCL5 MPKI TOTAL: 0 MSHR LATE: 0 PQ LATE: 0 COMMIT LATE: 0 MISSED OPPORTUNITY: 0 UNCOVERED: 0
PSCL5 PREFETCHES SAME FILL-ORIGIN LEVEL: 0 DIFFERENT FILL-ORIGIN LEVEL: 0

PSCL4 TOTAL     ACCESS:      15020  HIT:      15020  MISS:          0  HIT %:        100  MISS %:          0   MPKI: 0
PSCL4 Test counter:          0
PSCL4 LOAD TRANSLATION ACCESS:      15020  HIT:      15020  MISS:          0  HIT %:        100  MISS %:          0   MPKI: 0
PSCL4 PREFETCH  REQUESTED:          0  ISSUED:          0  USEFUL:          0  USELESS:          0
PSCL4 USEFUL LOAD PREFETCHES:          0 PREFETCH ISSUED TO LOWER LEVEL:          0  ACCURACY: -nan
PSCL4 TIMELY PREFETCHES:          0 LATE PREFETCHES: 0 DROPPED PREFETCHES: 0
PSCL4 COMMIT LATE PREFETCHES: 0 MISSED OPPORTUNITY: 0 LATE IN PQ: 0 UNCOVERED: 0
PSCL4 COMMIT LATE MSHR PREFETCHES: 0
PSCL4 MPKI TOTAL: 0 MSHR LATE: 0 PQ LATE: 0 COMMIT LATE: 0 MISSED OPPORTUNITY: 0 UNCOVERED: 0
PSCL4 PREFETCHES SAME FILL-ORIGIN LEVEL: 0 DIFFERENT FILL-ORIGIN LEVEL: 0

PSCL3 TOTAL     ACCESS:      15020  HIT:      15020  MISS:          0  HIT %:        100  MISS %:          0   MPKI: 0
PSCL3 Test counter:          0
PSCL3 LOAD TRANSLATION ACCESS:      15020  HIT:      15020  MISS:          0  HIT %:        100  MISS %:          0   MPKI: 0
PSCL3 PREFETCH  REQUESTED:          0  ISSUED:          0  USEFUL:          0  USELESS:          0
PSCL3 USEFUL LOAD PREFETCHES:          0 PREFETCH ISSUED TO LOWER LEVEL:          0  ACCURACY: -nan
PSCL3 TIMELY PREFETCHES:          0 LATE PREFETCHES: 0 DROPPED PREFETCHES: 0
PSCL3 COMMIT LATE PREFETCHES: 0 MISSED OPPORTUNITY: 0 LATE IN PQ: 0 UNCOVERED: 0
PSCL3 COMMIT LATE MSHR PREFETCHES: 0
PSCL3 MPKI TOTAL: 0 MSHR LATE: 0 PQ LATE: 0 COMMIT LATE: 0 MISSED OPPORTUNITY: 0 UNCOVERED: 0
PSCL3 PREFETCHES SAME FILL-ORIGIN LEVEL: 0 DIFFERENT FILL-ORIGIN LEVEL: 0

PSCL2 TOTAL     ACCESS:      15020  HIT:      14990  MISS:         30  HIT %:    99.8003  MISS %:   0.199734   MPKI: 0.00015
PSCL2 Test counter:          0
PSCL2 LOAD TRANSLATION ACCESS:      15020  HIT:      14990  MISS:         30  HIT %:    99.8003  MISS %:   0.199734   MPKI: 0.00015
PSCL2 PREFETCH  REQUESTED:          0  ISSUED:          0  USEFUL:          0  USELESS:          0
PSCL2 USEFUL LOAD PREFETCHES:          0 PREFETCH ISSUED TO LOWER LEVEL:          0  ACCURACY: -nan
PSCL2 TIMELY PREFETCHES:          0 LATE PREFETCHES: 0 DROPPED PREFETCHES: 0
PSCL2 COMMIT LATE PREFETCHES: 0 MISSED OPPORTUNITY: 0 LATE IN PQ: 0 UNCOVERED: 0
PSCL2 COMMIT LATE MSHR PREFETCHES: 0
PSCL2 MPKI TOTAL: 0 MSHR LATE: 0 PQ LATE: 0 COMMIT LATE: 0 MISSED OPPORTUNITY: 0 UNCOVERED: 0
PSCL2 PREFETCHES SAME FILL-ORIGIN LEVEL: 0 DIFFERENT FILL-ORIGIN LEVEL: 0

LLC TOTAL     ACCESS:   11978810  HIT:    6511757  MISS:    5467053  HIT %:    54.3606  MISS %:    45.6394   MPKI: 27.3353
LLC Test counter:          0
LLC LOAD      ACCESS:    9675875  HIT:    5848411  MISS:    3827464  HIT %:    60.4432  MISS %:    39.5568   MPKI: 19.1373
LLC PREFETCH  ACCESS:    2104667  HIT:     467588  MISS:    1637079  HIT %:    22.2167  MISS %:    77.7833   MPKI: 8.18539
LLC WRITEBACK ACCESS:     195643  HIT:     195052  MISS:        591  HIT %:    99.6979  MISS %:   0.302081   MPKI: 0.002955
LLC LOAD TRANSLATION ACCESS:       2625  HIT:        706  MISS:       1919  HIT %:    26.8952  MISS %:    73.1048   MPKI: 0.009595
LLC PREFETCH  REQUESTED:          0  ISSUED:          0  USEFUL:     185309  USELESS:    1451739
LLC USEFUL LOAD PREFETCHES:     185309 PREFETCH ISSUED TO LOWER LEVEL:    1642316  ACCURACY: 11.2834
LLC TIMELY PREFETCHES:     185309 LATE PREFETCHES: 5237 DROPPED PREFETCHES: 0
LLC COMMIT LATE PREFETCHES: 0 MISSED OPPORTUNITY: 0 LATE IN PQ: 0 UNCOVERED: 0
LLC COMMIT LATE MSHR PREFETCHES: 0
LLC MPKI TOTAL: 19.1373 MSHR LATE: 0.026185 PQ LATE: 0 COMMIT LATE: 0 MISSED OPPORTUNITY: 0 UNCOVERED: 0
LLC PREFETCHES SAME FILL-ORIGIN LEVEL: 388323 DIFFERENT FILL-ORIGIN LEVEL: 0
LLC AVERAGE MISS LATENCY: 159.334 cycles
LLC AVERAGE MISS LATENCY LOAD: 158.586 cycles
LLC AVERAGE MISS LATENCY PREFETCH: 161.124 cycles
LLC AVERAGE MSHR OCCUPANCY: 1.04571
LLC MSHR FULL: 0
LLC RQ	ACCESS:    9678499	FORWARD:          0	MERGED:          0	TO_CACHE:    9678499
LLC WQ	ACCESS:     195643	FORWARD:          0	MERGED:          0	TO_CACHE:     195643
LLC PQ	ACCESS:    2111674	FORWARD:          0	MERGED:        993	TO_CACHE:    2110681

LLC Dense regions hint to LLC: 0
55cf028a1244: 5
55cf028a1240: 101
55cf028a1248: 4172
55cf028a1263: 5635
55cf028a1260: 16708
55cf028a127b: 36638
55cf028a1266: 3764205

RAW hits: 29705
Loads Generated: 55732561
Loads sent to L1D: 55702856
Stores Generated: 247045
Stores sent to L1D: 247045
Major fault: 0 Minor fault: 19633
Allocated PAGES: 19633
Total Load insts: 68635956
Total Non-spec loads: 13751204
Percentage of speculative loads: 79.965
L1D response latency: 74.1241 cycles
Load retirement latency: 153.431 cycles

------------------
Depth Distribution
------------------
depth 0: 15995538
depth 1: 1498797
depth 2: 146053
depth 3: 289183
depth 4: 492574
depth 5: 325112
depth 6: 48231
depth 7: 1727
depth 8: 0
depth 9: 0
depth 10: 0
depth 11: 0
depth 12: 0
depth 13: 0
depth 14: 0
depth 15: 0
depth 16: 0
depth 17: 0
depth 18: 0
depth 19: 0
depth 20: 0
depth 21: 0
depth 22: 0
depth 23: 0
depth 24: 0
depth 25: 0
depth 26: 0
depth 27: 0
depth 28: 0
depth 29: 0
Total: 18797215
------------------
ST read accesses: 6948668
ST write accesses: 8316870
PT read accesses: 116299668
PT write accesses: 6992280
FILTER read accesses: 51116976
FILTER write accesses: 30572164
GHR read accesses: 69387754
GHR write accesses: 280080
PERC read accesses: 749736837
PERC write accesses: 23048546
GHR counter read accesses: 30531076
GHR counter write accesses: 18351105
GHR ip read accesses: 66664455
GHR ip write accesses: 61062152
ST tag read accesses: 10127173448
ST tag write accesses: 2375649086

DRAM Statistics
 CHANNEL 0
 RQ ROW_BUFFER_HIT:    1229256  ROW_BUFFER_MISS:    4237197
 DBUS_CONGESTED:        986
 WQ ROW_BUFFER_HIT:      74296  ROW_BUFFER_MISS:     118921  FULL:          0

 AVG_CONGESTED_CYCLE: 4
 All warmup complete: 2
Channel 0 Bank busy for read cycles: 0
Channel 0 Bank busy for write cycles: 0
Channel 0
Rank 0
0banks busy for read cycles: 475016158
0banks busy for write cycles: 165678
1banks busy for read cycles: 269491061
1banks busy for write cycles: 30810814
2banks busy for read cycles: 104604176
2banks busy for write cycles: 2898854
3banks busy for read cycles: 42002139
3banks busy for write cycles: 508243
4banks busy for read cycles: 15036952
4banks busy for write cycles: 148040
5banks busy for read cycles: 4528330
5banks busy for write cycles: 62269
6banks busy for read cycles: 1135624
6banks busy for write cycles: 29901
7banks busy for read cycles: 288636
7banks busy for write cycles: 10875
8banks busy for read cycles: 90071
8banks busy for write cycles: 7693

CPU 0 Branch Prediction Accuracy: 90.5062% MPKI: 19.3845 Average ROB Occupancy at Mispredict: 25.6393
Branch types
NOT_BRANCH: 159163481 79.5817%
BRANCH_DIRECT_JUMP: 0 0%
BRANCH_INDIRECT: 0 0%
BRANCH_CONDITIONAL: 40836226 20.4181%
BRANCH_DIRECT_CALL: 0 0%
BRANCH_INDIRECT_CALL: 0 0%
BRANCH_RETURN: 0 0%
BRANCH_OTHER: 0 0%

DRAM PAGES: 1048576
Allocated PAGES: 19633
