Initialize SIGNATURE TABLE
ST_SET: 1
ST_WAY: 256
ST_TAG_BIT: 16
ST_TAG_MASK: ffff

Initialize PATTERN TABLE
PT_SET: 512
PT_WAY: 4
SIG_DELTA_BIT: 7
C_SIG_BIT: 4
C_DELTA_BIT: 4

Initialize PREFETCH FILTER
FILTER_SET: 1024

Initialize PERCEPTRON
PERC_ENTRIES: 4096
PERC_FEATURES: 9

*** ChampSim Multicore Out-of-Order Simulator ***

Warmup Instructions: 50000000
Simulation Instructions: 200000000
Number of CPUs: 1
LLC sets: 2048
LLC ways: 16
Secure Berti: OFF
Berti: OFF
Berti Fill: OFF
On commit prefetching: OFF
L2 LLC Bypass speculative loads: OFF
Off-chip DRAM Size: 4096 MB Channels: 1 Width: 64-bit Data Rate: 6400 MT/s
CPU 0 runs /home/sumon/secure_berti/Berti_Baseline/../../traces/gap/pr-10.trace.gz
.gz
BTB has LRU replacement policy
ITLB has LRU replacement policy
DTLB has LRU replacement policy
STLB has LRU replacement policy
L1I has LRU replacement policy
L1D has LRU replacement policy
PERC_ENTRIES: 4096
L2C has LRU replacement policy
LLC has LRU replacement policy
Heartbeat CPU 0 instructions: 10000002 cycles: 3333447 heartbeat IPC: 2.9999 cumulative IPC: 2.9999 (Simulation time: 0 hr 0 min 9 sec) 
Heartbeat CPU 0 instructions: 20000000 cycles: 9685838 heartbeat IPC: 1.57421 cumulative IPC: 2.06487 (Simulation time: 0 hr 0 min 37 sec) 
Heartbeat CPU 0 instructions: 30000003 cycles: 16571487 heartbeat IPC: 1.4523 cumulative IPC: 1.81034 (Simulation time: 0 hr 1 min 8 sec) 
Heartbeat CPU 0 instructions: 40000001 cycles: 23450244 heartbeat IPC: 1.45375 cumulative IPC: 1.70574 (Simulation time: 0 hr 1 min 39 sec) 
Heartbeat CPU 0 instructions: 50000000 cycles: 30274251 heartbeat IPC: 1.46541 cumulative IPC: 1.65157 (Simulation time: 0 hr 2 min 8 sec) 

Warmup complete CPU 0 instructions: 50000002 cycles: 30274252 (Simulation time: 0 hr 2 min 8 sec) 

Heartbeat CPU 0 instructions: 60000000 cycles: 221849490 heartbeat IPC: 0.0521988 cumulative IPC: 0.0521988 (Simulation time: 0 hr 4 min 0 sec) 
Heartbeat CPU 0 instructions: 70000000 cycles: 412118852 heartbeat IPC: 0.0525571 cumulative IPC: 0.0523773 (Simulation time: 0 hr 5 min 48 sec) 
Heartbeat CPU 0 instructions: 80000000 cycles: 601272022 heartbeat IPC: 0.0528672 cumulative IPC: 0.0525396 (Simulation time: 0 hr 7 min 46 sec) 
Heartbeat CPU 0 instructions: 90000000 cycles: 791342637 heartbeat IPC: 0.052612 cumulative IPC: 0.0525577 (Simulation time: 0 hr 11 min 4 sec) 
Heartbeat CPU 0 instructions: 100000002 cycles: 983179946 heartbeat IPC: 0.0521275 cumulative IPC: 0.0524711 (Simulation time: 0 hr 13 min 45 sec) 
Heartbeat CPU 0 instructions: 110000000 cycles: 1173210816 heartbeat IPC: 0.052623 cumulative IPC: 0.0524964 (Simulation time: 0 hr 15 min 31 sec) 
Heartbeat CPU 0 instructions: 120000000 cycles: 1363750105 heartbeat IPC: 0.0524826 cumulative IPC: 0.0524944 (Simulation time: 0 hr 17 min 15 sec) 
Heartbeat CPU 0 instructions: 130000001 cycles: 1553257756 heartbeat IPC: 0.0527683 cumulative IPC: 0.0525285 (Simulation time: 0 hr 18 min 59 sec) 
Heartbeat CPU 0 instructions: 140000000 cycles: 1740719456 heartbeat IPC: 0.0533442 cumulative IPC: 0.0526179 (Simulation time: 0 hr 20 min 42 sec) 
Heartbeat CPU 0 instructions: 150000000 cycles: 1931246305 heartbeat IPC: 0.052486 cumulative IPC: 0.0526047 (Simulation time: 0 hr 22 min 25 sec) 
Heartbeat CPU 0 instructions: 160000000 cycles: 2121118339 heartbeat IPC: 0.0526671 cumulative IPC: 0.0526103 (Simulation time: 0 hr 24 min 9 sec) 
Heartbeat CPU 0 instructions: 170000001 cycles: 2311302219 heartbeat IPC: 0.0525807 cumulative IPC: 0.0526079 (Simulation time: 0 hr 25 min 51 sec) 
Heartbeat CPU 0 instructions: 180000001 cycles: 2502340531 heartbeat IPC: 0.0523455 cumulative IPC: 0.0525876 (Simulation time: 0 hr 27 min 35 sec) 
Heartbeat CPU 0 instructions: 190000001 cycles: 2641232934 heartbeat IPC: 0.0719982 cumulative IPC: 0.0536202 (Simulation time: 0 hr 28 min 53 sec) 
Heartbeat CPU 0 instructions: 200000003 cycles: 2683293705 heartbeat IPC: 0.237751 cumulative IPC: 0.0565394 (Simulation time: 0 hr 29 min 27 sec) 
Heartbeat CPU 0 instructions: 210000000 cycles: 2873880045 heartbeat IPC: 0.0524696 cumulative IPC: 0.0562666 (Simulation time: 0 hr 31 min 10 sec) 
Heartbeat CPU 0 instructions: 220000000 cycles: 3063635672 heartbeat IPC: 0.0526994 cumulative IPC: 0.0560434 (Simulation time: 0 hr 32 min 53 sec) 
Heartbeat CPU 0 instructions: 230000001 cycles: 3254793030 heartbeat IPC: 0.0523129 cumulative IPC: 0.0558223 (Simulation time: 0 hr 34 min 37 sec) 
Heartbeat CPU 0 instructions: 240000001 cycles: 3444094111 heartbeat IPC: 0.0528259 cumulative IPC: 0.0556561 (Simulation time: 0 hr 36 min 21 sec) 
Heartbeat CPU 0 instructions: 250000001 cycles: 3635079250 heartbeat IPC: 0.0523601 cumulative IPC: 0.0554815 (Simulation time: 0 hr 38 min 5 sec) 
Finished CPU 0 instructions: 200000000 cycles: 3604804999 cumulative IPC: 0.0554815 (Simulation time: 0 hr 38 min 5 sec) 

ChampSim completed all CPUs

Region of Interest Statistics

CPU 0 cumulative IPC: 0.0554815 instructions: 200000000 cycles: 3604804999
ITLB TOTAL     ACCESS:   58967973  HIT:   58967973  MISS:          0  HIT %:        100  MISS %:          0   MPKI: 0
ITLB Test counter:          0
ITLB LOAD TRANSLATION ACCESS:   58967973  HIT:   58967973  MISS:          0  HIT %:        100  MISS %:          0   MPKI: 0
ITLB PREFETCH  REQUESTED:          0  ISSUED:          0  USEFUL:          0  USELESS:          0
ITLB USEFUL LOAD PREFETCHES:          0 PREFETCH ISSUED TO LOWER LEVEL:          0  ACCURACY: -nan
ITLB TIMELY PREFETCHES:          0 LATE PREFETCHES: 0 DROPPED PREFETCHES: 0
ITLB COMMIT LATE PREFETCHES: 0 MISSED OPPORTUNITY: 0 LATE IN PQ: 0 UNCOVERED: 0
ITLB COMMIT LATE MSHR PREFETCHES: 0
ITLB MPKI TOTAL: 0 MSHR LATE: 0 PQ LATE: 0 COMMIT LATE: 0 MISSED OPPORTUNITY: 0 UNCOVERED: 0
ITLB PREFETCHES SAME FILL-ORIGIN LEVEL: 0 DIFFERENT FILL-ORIGIN LEVEL: 0
ITLB AVERAGE MISS LATENCY: -nan cycles
ITLB AVERAGE MISS LATENCY LOAD: -nan cycles
ITLB AVERAGE MISS LATENCY PREFETCH: -nan cycles
ITLB AVERAGE MSHR OCCUPANCY: 0
ITLB MSHR FULL: 0
ITLB RQ	ACCESS:   60092905	FORWARD:          0	MERGED:    1124932	TO_CACHE:   58967973

DTLB TOTAL     ACCESS:   67178866  HIT:   44224221  MISS:   22954645  HIT %:    65.8306  MISS %:    34.1694   MPKI: 114.773
DTLB Test counter:          0
DTLB LOAD TRANSLATION ACCESS:   67178866  HIT:   44224221  MISS:   22954645  HIT %:    65.8306  MISS %:    34.1694   MPKI: 114.773
DTLB PREFETCH  REQUESTED:          0  ISSUED:          0  USEFUL:          0  USELESS:          0
DTLB USEFUL LOAD PREFETCHES:          0 PREFETCH ISSUED TO LOWER LEVEL:          0  ACCURACY: -nan
DTLB TIMELY PREFETCHES:          0 LATE PREFETCHES: 0 DROPPED PREFETCHES: 0
DTLB COMMIT LATE PREFETCHES: 0 MISSED OPPORTUNITY: 0 LATE IN PQ: 0 UNCOVERED: 0
DTLB COMMIT LATE MSHR PREFETCHES: 0
DTLB MPKI TOTAL: 0 MSHR LATE: 0 PQ LATE: 0 COMMIT LATE: 0 MISSED OPPORTUNITY: 0 UNCOVERED: 0
DTLB PREFETCHES SAME FILL-ORIGIN LEVEL: 0 DIFFERENT FILL-ORIGIN LEVEL: 0
DTLB AVERAGE MISS LATENCY: 9.18786 cycles
DTLB AVERAGE MISS LATENCY LOAD: -nan cycles
DTLB AVERAGE MISS LATENCY PREFETCH: -nan cycles
DTLB AVERAGE MSHR OCCUPANCY: 0.200848
DTLB MSHR FULL: 0
DTLB RQ	ACCESS:   67838179	FORWARD:          0	MERGED:     651851	TO_CACHE:   67186328

STLB TOTAL     ACCESS:   22954645  HIT:   22913849  MISS:      40796  HIT %:    99.8223  MISS %:   0.177724   MPKI: 0.20398
STLB Test counter:          0
STLB LOAD TRANSLATION ACCESS:   22954645  HIT:   22913849  MISS:      40796  HIT %:    99.8223  MISS %:   0.177724   MPKI: 0.20398
STLB PREFETCH  REQUESTED:          0  ISSUED:          0  USEFUL:          0  USELESS:          0
STLB USEFUL LOAD PREFETCHES:          0 PREFETCH ISSUED TO LOWER LEVEL:          0  ACCURACY: -nan
STLB TIMELY PREFETCHES:          0 LATE PREFETCHES: 0 DROPPED PREFETCHES: 0
STLB COMMIT LATE PREFETCHES: 0 MISSED OPPORTUNITY: 0 LATE IN PQ: 0 UNCOVERED: 0
STLB COMMIT LATE MSHR PREFETCHES: 0
STLB MPKI TOTAL: 0 MSHR LATE: 0 PQ LATE: 0 COMMIT LATE: 0 MISSED OPPORTUNITY: 0 UNCOVERED: 0
STLB PREFETCHES SAME FILL-ORIGIN LEVEL: 0 DIFFERENT FILL-ORIGIN LEVEL: 0
STLB AVERAGE MISS LATENCY: 101.443 cycles
STLB AVERAGE MISS LATENCY LOAD: -nan cycles
STLB AVERAGE MISS LATENCY PREFETCH: -nan cycles
STLB AVERAGE MSHR OCCUPANCY: 0.000412683
STLB MSHR FULL: 0
STLB RQ	ACCESS:   22954645	FORWARD:          0	MERGED:          0	TO_CACHE:   22954645

STLB Hit, L1D data hit: 0
STLB Hit, L2C data hit: 0
STLB Hit, LLC data hit: 0
STLB Hit, LLC data miss: 0
STLB STLB hints to L2: 0
L1D TOTAL     ACCESS:   66477623  HIT:   31939996  MISS:   34537627  HIT %:    48.0462  MISS %:    51.9538   MPKI: 172.688
L1D Test counter:          0
L1D LOAD      ACCESS:   63869906  HIT:   29397838  MISS:   35140666  HIT %:    46.0277  MISS %:    53.9723   MPKI: 172.36
L1D RFO       ACCESS:    2607717  HIT:    2542158  MISS:      65559  HIT %:     97.486  MISS %:    2.51404   MPKI: 0.327795
L1D PREFETCH  REQUESTED:          0  ISSUED:          0  USEFUL:          0  USELESS:          0
L1D USEFUL LOAD PREFETCHES:          0 PREFETCH ISSUED TO LOWER LEVEL:          0  ACCURACY: -nan
L1D TIMELY PREFETCHES:          0 LATE PREFETCHES: 0 DROPPED PREFETCHES: 0
L1D COMMIT LATE PREFETCHES: 0 MISSED OPPORTUNITY: 0 LATE IN PQ: 0 UNCOVERED: 0
L1D COMMIT LATE MSHR PREFETCHES: 0
L1D MPKI TOTAL: 175.703 MSHR LATE: 0 PQ LATE: 0 COMMIT LATE: 0 MISSED OPPORTUNITY: 0 UNCOVERED: 0
L1D PREFETCHES SAME FILL-ORIGIN LEVEL: 0 DIFFERENT FILL-ORIGIN LEVEL: 0
L1D AVERAGE MISS LATENCY: 84.0832 cycles
L1D AVERAGE MISS LATENCY LOAD: 83.88 cycles
L1D AVERAGE MISS LATENCY PREFETCH: -nan cycles
L1D AVERAGE MSHR OCCUPANCY: 0.351972
L1D MSHR FULL: 0
L1D RQ	ACCESS:   77353833	FORWARD:          0	MERGED:   12815320	TO_CACHE:   64538504
L1D WQ	ACCESS:    3299680	FORWARD:          9	MERGED:          5	TO_CACHE:    3299675

L1D UNIQUE REGIONS ACCESSED: 0
L1D REGIONS CONFLICTS: 0
L1D Cross Page Prefetch Requests: 0
L1D Same Page Prefetch Requests: 0
L1D ROI Sum of L1D PQ occupancy: 0
L1D PREFETCHES PUSHED FROM L2C: 0
14b38703b67e: 1
14b38703886b: 1
14b38703b3cc: 1
14b387001040: 1
14b387091143: 1
55fa52a1ffe0: 1
14b38703b530: 1
14b38706b951: 1
14b387001230: 1
14b38703f1d1: 1
14b38703def2: 1
55fa52a2002d: 1
14b38703c461: 1
55fa52a1ffee: 1
14b38703b67a: 1
14b38703dee7: 1
14b387041760: 1
14b38703ecd6: 1
14b38709b578: 1
14b38703f1c6: 1
14b38711226f: 1
14b38703ecdd: 1
14b387112247: 1
55fa52a2003f: 1
14b387001100: 1
14b3871100b0: 1
14b38703f6d6: 1
14b387091646: 1
14b387112264: 1
14b387112254: 1
14b38703f6e4: 1
14b387112230: 1
14b387112240: 1
55fa52a1e510: 1
14b38703b3bc: 1
14b38703b5e5: 1
14b38703b3c3: 1
14b38711224b: 1
14b3870404f2: 5
55fa52a20075: 7369
55fa52a20050: 7469
55fa52a20093: 7793
55fa52a2000d: 65536
55fa52a2007b: 77227
55fa52a20000: 131073
55fa52a20054: 140674
55fa52a20060: 2107979
55fa52a2006a: 31926905
L1I TOTAL     ACCESS:   60092904  HIT:   60092881  MISS:         23  HIT %:        100  MISS %: 3.82741e-05   MPKI: 0.000115
L1I Test counter:          0
L1I LOAD      ACCESS:   60092904  HIT:   60092881  MISS:         24  HIT %:        100  MISS %: 3.82741e-05   MPKI: 0.000115
L1I PREFETCH  REQUESTED:          0  ISSUED:          0  USEFUL:          0  USELESS:          0
L1I USEFUL LOAD PREFETCHES:          0 PREFETCH ISSUED TO LOWER LEVEL:          0  ACCURACY: -nan
L1I TIMELY PREFETCHES:          0 LATE PREFETCHES: 0 DROPPED PREFETCHES: 0
L1I COMMIT LATE PREFETCHES: 0 MISSED OPPORTUNITY: 0 LATE IN PQ: 0 UNCOVERED: 0
L1I COMMIT LATE MSHR PREFETCHES: 0
L1I MPKI TOTAL: 0.00012 MSHR LATE: 0 PQ LATE: 0 COMMIT LATE: 0 MISSED OPPORTUNITY: 0 UNCOVERED: 0
L1I PREFETCHES SAME FILL-ORIGIN LEVEL: 0 DIFFERENT FILL-ORIGIN LEVEL: 0
L1I AVERAGE MISS LATENCY: 157.478 cycles
L1I AVERAGE MISS LATENCY LOAD: 157.478 cycles
L1I AVERAGE MISS LATENCY PREFETCH: -nan cycles
L1I AVERAGE MSHR OCCUPANCY: 1.33127e-07
L1I MSHR FULL: 0
L1I RQ	ACCESS:   71178209	FORWARD:          0	MERGED:   11085304	TO_CACHE:   60092905

14b3870403df: 1
14b3870413c4: 1
14b387033396: 1
14b387040400: 1
14b3870413b8: 1
14b38704066c: 1
14b387040682: 1
14b3870411c8: 1
14b387033340: 1
14b38703393a: 1
14b38703d103: 1
14b387033944: 1
14b387040c43: 1
14b38703d0db: 1
14b3870333c0: 1
14b3870339b9: 1
14b387040443: 1
14b3870404ee: 1
14b3870406f2: 1
14b387040f1c: 1
14b387040f41: 1
14b38703fd70: 1
14b387040c24: 1
BTB TOTAL     ACCESS:   37027234  HIT:   37027062  MISS:        172  HIT %:    99.9995  MISS %: 0.000464523   MPKI: 0.00086
BTB Test counter:          0
BTB BRANCH_DIRECT_JUMP	ACCESS:         67  HIT:         33  MISS:         34
BTB BRANCH_INDIRECT	ACCESS:          4  HIT:          0  MISS:          4
BTB BRANCH_CONDITIONAL	ACCESS:   37027097  HIT:   37027009  MISS:         88
BTB BRANCH_DIRECT_CALL	ACCESS:         28  HIT:         10  MISS:         18
BTB BRANCH_INDIRECT_CALL	ACCESS:          5  HIT:          1  MISS:          4
BTB BRANCH_RETURN	ACCESS:         33  HIT:          9  MISS:         24
BTB BRANCH_OTHER ACCESS:          0  HIT:          0  MISS:          0

L2C TOTAL     ACCESS:   40098839  HIT:   12339220  MISS:   27759619  HIT %:     30.772  MISS %:     69.228   MPKI: 138.798
L2C Test counter:          0
L2C LOAD      ACCESS:   34472090  HIT:   11467450  MISS:   23004640  HIT %:    33.2659  MISS %:    66.7341   MPKI: 115.023
L2C DATA LOAD MPKI: 115.023
L2C INSTRUCTION LOAD MPKI: 0.000115
L2C RFO       ACCESS:      65559  HIT:         73  MISS:      65486  HIT %:    0.11135  MISS %:    99.8886   MPKI: 0.32743
L2C PREFETCH  ACCESS:    5370195  HIT:     687899  MISS:    4682296  HIT %:    12.8096  MISS %:    87.1904   MPKI: 23.4115
L2C DATA PREFETCH MPKI: 23.4115
L2C INSTRUCTION PREFETCH MPKI: 0
L2C WRITEBACK ACCESS:     150160  HIT:     150101  MISS:         59  HIT %:    99.9607  MISS %:  0.0392914   MPKI: 0.000295
L2C LOAD TRANSLATION ACCESS:      40835  HIT:      33697  MISS:       7138  HIT %:    82.5199  MISS %:    17.4801   MPKI: 0.03569
L2C PREFETCH  REQUESTED:    8731158  ISSUED:    8731158  USEFUL:    2776595  USELESS:    1905498
L2C USEFUL LOAD PREFETCHES:    2776595 PREFETCH ISSUED TO LOWER LEVEL:    8036557  ACCURACY: 34.5496
L2C TIMELY PREFETCHES:    2776595 LATE PREFETCHES: 163807 DROPPED PREFETCHES: 0
L2C COMMIT LATE PREFETCHES: 0 MISSED OPPORTUNITY: 0 LATE IN PQ: 0 UNCOVERED: 0
L2C COMMIT LATE MSHR PREFETCHES: 0
L2C MPKI TOTAL: 115.023 MSHR LATE: 0.819035 PQ LATE: 0 COMMIT LATE: 0 MISSED OPPORTUNITY: 0 UNCOVERED: 0
L2C PREFETCHES SAME FILL-ORIGIN LEVEL: 4846103 DIFFERENT FILL-ORIGIN LEVEL: 3190454
L2C AVERAGE MISS LATENCY: 112.296 cycles
L2C AVERAGE MISS LATENCY LOAD: 103.263 cycles
L2C AVERAGE MISS LATENCY PREFETCH: 155.709 cycles
L2C AVERAGE MSHR OCCUPANCY: 0.244401
L2C MSHR FULL: 0
L2C RQ	ACCESS:   34578484	FORWARD:          0	MERGED:          0	TO_CACHE:   34578484
L2C WQ	ACCESS:     150160	FORWARD:          0	MERGED:          0	TO_CACHE:     150160
L2C PQ	ACCESS:    8731158	FORWARD:          0	MERGED:       2492	TO_CACHE:    8728666

L2C Instructions Evicting Data 23
L2C Translations Evicting Data 7136
L2C Data Evicting Data 27745241
L2C Instructions Evicting Instructions 0
L2C Translations Evicting Instructions 0
L2C Data Evicting Instructions 23
L2C Instructions Evicting Translations 0
L2C Translations Evicting Translations 2
L2C Data Evicting Translations 7135
L2C Dense regions hint from L2: 0
14b38703b3c3: 1
55fa52a1e510: 1
14b38703b3bc: 1
14b38703b5e5: 1
55fa52a2003f: 1
14b38703ecdd: 1
14b38711226f: 1
14b38703ecd6: 1
14b38703d0db: 1
14b387112230: 1
14b3870413b8: 1
14b387041760: 1
14b38703886b: 1
14b38703f1d1: 1
14b38703dee7: 1
14b38703b67a: 1
14b387112240: 1
14b38711224b: 1
55fa52a1ffee: 1
14b38703b3cc: 1
14b387001040: 1
14b387091143: 1
55fa52a1ffe0: 1
14b38703b530: 1
14b38706b951: 1
14b387001230: 1
14b38703def2: 1
14b387040c43: 1
14b38703d103: 1
14b38703b67e: 1
14b38703c461: 1
14b387112247: 1
14b38703f1c6: 1
14b387040c24: 1
14b38703fd70: 1
14b387040f41: 1
14b3871100b0: 1
14b3870411c8: 1
14b3870413c4: 1
14b3870333c0: 1
14b387033396: 1
14b3870406f2: 1
14b387033340: 1
14b38703393a: 1
14b387033944: 1
14b387040682: 1
14b387091646: 1
14b38709b578: 1
14b3870404ee: 1
14b387040f1c: 1
14b387040400: 1
14b387001100: 1
14b38704066c: 1
14b387040443: 1
55fa52a2002d: 1
14b3870403df: 1
14b387112264: 1
14b387112254: 1
14b38703f6e4: 1
14b3870339b9: 1
14b3870404f2: 5
55fa52a20075: 163
55fa52a20050: 278
55fa52a2000d: 1413
55fa52a20093: 4069
55fa52a20000: 4740
55fa52a20054: 7450
55fa52a2007b: 8228
55fa52a20060: 78227
55fa52a2006a: 22900007
PSCL5 TOTAL     ACCESS:      40796  HIT:      40796  MISS:          0  HIT %:        100  MISS %:          0   MPKI: 0
PSCL5 Test counter:          0
PSCL5 LOAD TRANSLATION ACCESS:      40796  HIT:      40796  MISS:          0  HIT %:        100  MISS %:          0   MPKI: 0
PSCL5 PREFETCH  REQUESTED:          0  ISSUED:          0  USEFUL:          0  USELESS:          0
PSCL5 USEFUL LOAD PREFETCHES:          0 PREFETCH ISSUED TO LOWER LEVEL:          0  ACCURACY: -nan
PSCL5 TIMELY PREFETCHES:          0 LATE PREFETCHES: 0 DROPPED PREFETCHES: 0
PSCL5 COMMIT LATE PREFETCHES: 0 MISSED OPPORTUNITY: 0 LATE IN PQ: 0 UNCOVERED: 0
PSCL5 COMMIT LATE MSHR PREFETCHES: 0
PSCL5 MPKI TOTAL: 0 MSHR LATE: 0 PQ LATE: 0 COMMIT LATE: 0 MISSED OPPORTUNITY: 0 UNCOVERED: 0
PSCL5 PREFETCHES SAME FILL-ORIGIN LEVEL: 0 DIFFERENT FILL-ORIGIN LEVEL: 0

PSCL4 TOTAL     ACCESS:      40796  HIT:      40796  MISS:          0  HIT %:        100  MISS %:          0   MPKI: 0
PSCL4 Test counter:          0
PSCL4 LOAD TRANSLATION ACCESS:      40796  HIT:      40796  MISS:          0  HIT %:        100  MISS %:          0   MPKI: 0
PSCL4 PREFETCH  REQUESTED:          0  ISSUED:          0  USEFUL:          0  USELESS:          0
PSCL4 USEFUL LOAD PREFETCHES:          0 PREFETCH ISSUED TO LOWER LEVEL:          0  ACCURACY: -nan
PSCL4 TIMELY PREFETCHES:          0 LATE PREFETCHES: 0 DROPPED PREFETCHES: 0
PSCL4 COMMIT LATE PREFETCHES: 0 MISSED OPPORTUNITY: 0 LATE IN PQ: 0 UNCOVERED: 0
PSCL4 COMMIT LATE MSHR PREFETCHES: 0
PSCL4 MPKI TOTAL: 0 MSHR LATE: 0 PQ LATE: 0 COMMIT LATE: 0 MISSED OPPORTUNITY: 0 UNCOVERED: 0
PSCL4 PREFETCHES SAME FILL-ORIGIN LEVEL: 0 DIFFERENT FILL-ORIGIN LEVEL: 0

PSCL3 TOTAL     ACCESS:      40796  HIT:      40796  MISS:          0  HIT %:        100  MISS %:          0   MPKI: 0
PSCL3 Test counter:          0
PSCL3 LOAD TRANSLATION ACCESS:      40796  HIT:      40796  MISS:          0  HIT %:        100  MISS %:          0   MPKI: 0
PSCL3 PREFETCH  REQUESTED:          0  ISSUED:          0  USEFUL:          0  USELESS:          0
PSCL3 USEFUL LOAD PREFETCHES:          0 PREFETCH ISSUED TO LOWER LEVEL:          0  ACCURACY: -nan
PSCL3 TIMELY PREFETCHES:          0 LATE PREFETCHES: 0 DROPPED PREFETCHES: 0
PSCL3 COMMIT LATE PREFETCHES: 0 MISSED OPPORTUNITY: 0 LATE IN PQ: 0 UNCOVERED: 0
PSCL3 COMMIT LATE MSHR PREFETCHES: 0
PSCL3 MPKI TOTAL: 0 MSHR LATE: 0 PQ LATE: 0 COMMIT LATE: 0 MISSED OPPORTUNITY: 0 UNCOVERED: 0
PSCL3 PREFETCHES SAME FILL-ORIGIN LEVEL: 0 DIFFERENT FILL-ORIGIN LEVEL: 0

PSCL2 TOTAL     ACCESS:      40796  HIT:      40710  MISS:         86  HIT %:    99.7892  MISS %:   0.210805   MPKI: 0.00043
PSCL2 Test counter:          0
PSCL2 LOAD TRANSLATION ACCESS:      40796  HIT:      40710  MISS:         86  HIT %:    99.7892  MISS %:   0.210805   MPKI: 0.00043
PSCL2 PREFETCH  REQUESTED:          0  ISSUED:          0  USEFUL:          0  USELESS:          0
PSCL2 USEFUL LOAD PREFETCHES:          0 PREFETCH ISSUED TO LOWER LEVEL:          0  ACCURACY: -nan
PSCL2 TIMELY PREFETCHES:          0 LATE PREFETCHES: 0 DROPPED PREFETCHES: 0
PSCL2 COMMIT LATE PREFETCHES: 0 MISSED OPPORTUNITY: 0 LATE IN PQ: 0 UNCOVERED: 0
PSCL2 COMMIT LATE MSHR PREFETCHES: 0
PSCL2 MPKI TOTAL: 0 MSHR LATE: 0 PQ LATE: 0 COMMIT LATE: 0 MISSED OPPORTUNITY: 0 UNCOVERED: 0
PSCL2 PREFETCHES SAME FILL-ORIGIN LEVEL: 0 DIFFERENT FILL-ORIGIN LEVEL: 0

LLC TOTAL     ACCESS:   31034928  HIT:   14262017  MISS:   16772911  HIT %:    45.9547  MISS %:    54.0453   MPKI: 83.8646
LLC Test counter:          0
LLC LOAD      ACCESS:   22840833  HIT:   12075642  MISS:   10765191  HIT %:    52.8687  MISS %:    47.1313   MPKI: 53.826
LLC RFO       ACCESS:      65486  HIT:       1532  MISS:      63954  HIT %:    2.33943  MISS %:    97.6606   MPKI: 0.31977
LLC PREFETCH  ACCESS:    7985033  HIT:    2046689  MISS:    5938344  HIT %:    25.6316  MISS %:    74.3684   MPKI: 29.6917
LLC WRITEBACK ACCESS:     136438  HIT:     136324  MISS:        114  HIT %:    99.9164  MISS %:  0.0835544   MPKI: 0.00057
LLC LOAD TRANSLATION ACCESS:       7138  HIT:       1830  MISS:       5308  HIT %:    25.6374  MISS %:    74.3626   MPKI: 0.02654
LLC PREFETCH  REQUESTED:          0  ISSUED:          0  USEFUL:     726890  USELESS:    5210290
LLC USEFUL LOAD PREFETCHES:     726890 PREFETCH ISSUED TO LOWER LEVEL:    5971986  ACCURACY: 12.1717
LLC TIMELY PREFETCHES:     726890 LATE PREFETCHES: 33642 DROPPED PREFETCHES: 0
LLC COMMIT LATE PREFETCHES: 0 MISSED OPPORTUNITY: 0 LATE IN PQ: 0 UNCOVERED: 0
LLC COMMIT LATE MSHR PREFETCHES: 0
LLC MPKI TOTAL: 53.826 MSHR LATE: 0.16821 PQ LATE: 0 COMMIT LATE: 0 MISSED OPPORTUNITY: 0 UNCOVERED: 0
LLC PREFETCHES SAME FILL-ORIGIN LEVEL: 1944596 DIFFERENT FILL-ORIGIN LEVEL: 0
LLC AVERAGE MISS LATENCY: 153.136 cycles
LLC AVERAGE MISS LATENCY LOAD: 155.57 cycles
LLC AVERAGE MISS LATENCY PREFETCH: 148.744 cycles
LLC AVERAGE MSHR OCCUPANCY: 0.21534
LLC MSHR FULL: 0
LLC RQ	ACCESS:   22913457	FORWARD:          0	MERGED:          0	TO_CACHE:   22913457
LLC WQ	ACCESS:     136438	FORWARD:          0	MERGED:          0	TO_CACHE:     136438
LLC PQ	ACCESS:    8036557	FORWARD:          0	MERGED:          0	TO_CACHE:    8036557

LLC Dense regions hint to LLC: 0
14b387112230: 1
14b387112240: 1
55fa52a1e510: 1
14b38703b3bc: 1
14b38703b5e5: 1
55fa52a2003f: 1
14b38703ecdd: 1
14b38711226f: 1
14b3870413b8: 1
14b38703d0db: 1
14b387041760: 1
14b38703b3c3: 1
14b38711224b: 1
14b38703dee7: 1
14b38703f1d1: 1
14b38703b67a: 1
14b387112247: 1
55fa52a1ffee: 1
14b38703c461: 1
14b38703886b: 1
14b38703b3cc: 1
14b387001040: 1
14b387091143: 1
55fa52a1ffe0: 1
14b38703b530: 1
14b38706b951: 1
14b387001230: 1
14b38703def2: 1
14b387040c43: 1
14b38703d103: 1
14b38703b67e: 1
14b387091646: 1
14b38703f1c6: 1
14b387040c24: 1
14b38703fd70: 1
14b387040f41: 1
14b3871100b0: 1
14b3870411c8: 1
14b3870413c4: 1
14b3870333c0: 1
14b387033396: 1
14b3870406f2: 1
14b387033340: 1
14b38703393a: 1
14b387033944: 1
14b387040682: 1
14b38709b578: 1
14b38703ecd6: 1
14b3870404ee: 1
14b387040f1c: 1
14b387040400: 1
14b387001100: 1
14b38704066c: 1
14b387040443: 1
55fa52a2002d: 1
14b3870403df: 1
14b387112264: 1
14b387112254: 1
14b38703f6e4: 1
14b3870339b9: 1
55fa52a20075: 4
14b3870404f2: 5
55fa52a20050: 26
55fa52a20093: 310
55fa52a2000d: 1393
55fa52a20000: 3086
55fa52a2007b: 6995
55fa52a20054: 7004
55fa52a20060: 44662
55fa52a2006a: 10701646

RAW hits: 21
Loads Generated: 77353856
Loads sent to L1D: 77353833
Stores Generated: 3299680
Stores sent to L1D: 3299680
Major fault: 0 Minor fault: 34900
Allocated PAGES: 34900
Total Load insts: 95651109
Total Non-spec loads: 44733608
Percentage of speculative loads: 53.2325
L1D response latency: 83.88 cycles
Load retirement latency: 231.258 cycles

------------------
Depth Distribution
------------------
depth 0: 32506723
depth 1: 5942745
depth 2: 631770
depth 3: 1053309
depth 4: 825469
depth 5: 299515
depth 6: 22246
depth 7: 380
depth 8: 280
depth 9: 6093
depth 10: 8281
depth 11: 140710
depth 12: 137436
depth 13: 32906
depth 14: 64266
depth 15: 1570
depth 16: 650
depth 17: 195
depth 18: 124
depth 19: 9
depth 20: 0
depth 21: 0
depth 22: 0
depth 23: 0
depth 24: 0
depth 25: 0
depth 26: 0
depth 27: 0
depth 28: 0
depth 29: 0
Total: 41674677
------------------
ST read accesses: 15375035
ST write accesses: 19097032
PT read accesses: 268443678
PT write accesses: 15303076
FILTER read accesses: 138243182
FILTER write accesses: 93362177
GHR read accesses: 161257719
GHR write accesses: 996870
PERC read accesses: 1815059412
PERC write accesses: 80256744
GHR counter read accesses: 68944134
GHR counter write accesses: 44160776
GHR ip read accesses: 204722043
GHR ip write accesses: 137888268
ST tag read accesses: 23031403580
ST tag write accesses: 5387672451

DRAM Statistics
 CHANNEL 0
 RQ ROW_BUFFER_HIT:    3355751  ROW_BUFFER_MISS:   13417044
 DBUS_CONGESTED:       1362
 WQ ROW_BUFFER_HIT:      62891  ROW_BUFFER_MISS:      73231  FULL:          0

 AVG_CONGESTED_CYCLE: 6
 All warmup complete: 2
Channel 0 Bank busy for read cycles: 0
Channel 0 Bank busy for write cycles: 0
Channel 0
Rank 0
0banks busy for read cycles: 1826127009
0banks busy for write cycles: 67509
1banks busy for read cycles: 1440144110
1banks busy for write cycles: 15433227
2banks busy for read cycles: 239695947
2banks busy for write cycles: 1341240
3banks busy for read cycles: 60644877
3banks busy for write cycles: 451271
4banks busy for read cycles: 13784990
4banks busy for write cycles: 270371
5banks busy for read cycles: 3182771
5banks busy for write cycles: 198526
6banks busy for read cycles: 927338
6banks busy for write cycles: 203517
7banks busy for read cycles: 158913
7banks busy for write cycles: 290294
8banks busy for read cycles: 145656
8banks busy for write cycles: 1737434

CPU 0 Branch Prediction Accuracy: 96.9594% MPKI: 5.62926 Average ROB Occupancy at Mispredict: 138.099
Branch types
NOT_BRANCH: 162972290 81.4861%
BRANCH_DIRECT_JUMP: 67 3.35e-05%
BRANCH_INDIRECT: 4 2e-06%
BRANCH_CONDITIONAL: 37027324 18.5137%
BRANCH_DIRECT_CALL: 28 1.4e-05%
BRANCH_INDIRECT_CALL: 5 2.5e-06%
BRANCH_RETURN: 33 1.65e-05%
BRANCH_OTHER: 0 0%

DRAM PAGES: 1048576
Allocated PAGES: 34900
