Initialize SIGNATURE TABLE
ST_SET: 1
ST_WAY: 256
ST_TAG_BIT: 16
ST_TAG_MASK: ffff

Initialize PATTERN TABLE
PT_SET: 512
PT_WAY: 4
SIG_DELTA_BIT: 7
C_SIG_BIT: 4
C_DELTA_BIT: 4

Initialize PREFETCH FILTER
FILTER_SET: 1024

Initialize PERCEPTRON
PERC_ENTRIES: 4096
PERC_FEATURES: 9

*** ChampSim Multicore Out-of-Order Simulator ***

Warmup Instructions: 50000000
Simulation Instructions: 200000000
Number of CPUs: 1
LLC sets: 2048
LLC ways: 16
Secure Berti: OFF
Berti: OFF
Berti Fill: OFF
On commit prefetching: OFF
L2 LLC Bypass speculative loads: OFF
Off-chip DRAM Size: 4096 MB Channels: 1 Width: 64-bit Data Rate: 6400 MT/s
CPU 0 runs /home/sumon/secure_berti/Berti_Baseline/../../traces/gap/pr-14.trace.gz
.gz
BTB has LRU replacement policy
ITLB has LRU replacement policy
DTLB has LRU replacement policy
STLB has LRU replacement policy
L1I has LRU replacement policy
L1D has LRU replacement policy
PERC_ENTRIES: 4096
L2C has LRU replacement policy
LLC has LRU replacement policy
Heartbeat CPU 0 instructions: 10000001 cycles: 3333439 heartbeat IPC: 2.99991 cumulative IPC: 2.99991 (Simulation time: 0 hr 0 min 9 sec) 
Heartbeat CPU 0 instructions: 20000001 cycles: 9623245 heartbeat IPC: 1.58987 cumulative IPC: 2.0783 (Simulation time: 0 hr 0 min 35 sec) 
Heartbeat CPU 0 instructions: 30000003 cycles: 16450924 heartbeat IPC: 1.46463 cumulative IPC: 1.82361 (Simulation time: 0 hr 1 min 19 sec) 
Heartbeat CPU 0 instructions: 40000003 cycles: 23259659 heartbeat IPC: 1.4687 cumulative IPC: 1.71972 (Simulation time: 0 hr 1 min 56 sec) 
Heartbeat CPU 0 instructions: 50000000 cycles: 30068238 heartbeat IPC: 1.46873 cumulative IPC: 1.66288 (Simulation time: 0 hr 2 min 25 sec) 

Warmup complete CPU 0 instructions: 50000004 cycles: 30068240 (Simulation time: 0 hr 2 min 25 sec) 

Heartbeat CPU 0 instructions: 60000000 cycles: 211564106 heartbeat IPC: 0.0550977 cumulative IPC: 0.0550977 (Simulation time: 0 hr 4 min 13 sec) 
Heartbeat CPU 0 instructions: 70000000 cycles: 393093241 heartbeat IPC: 0.0550876 cumulative IPC: 0.0550926 (Simulation time: 0 hr 6 min 1 sec) 
Heartbeat CPU 0 instructions: 80000001 cycles: 574647178 heartbeat IPC: 0.0550801 cumulative IPC: 0.0550884 (Simulation time: 0 hr 7 min 50 sec) 
Heartbeat CPU 0 instructions: 90000000 cycles: 756796863 heartbeat IPC: 0.0548999 cumulative IPC: 0.0550412 (Simulation time: 0 hr 9 min 39 sec) 
Heartbeat CPU 0 instructions: 100000001 cycles: 938348030 heartbeat IPC: 0.0550809 cumulative IPC: 0.0550491 (Simulation time: 0 hr 11 min 32 sec) 
Heartbeat CPU 0 instructions: 110000000 cycles: 1120487421 heartbeat IPC: 0.054903 cumulative IPC: 0.0550247 (Simulation time: 0 hr 14 min 36 sec) 
Heartbeat CPU 0 instructions: 120000001 cycles: 1302645466 heartbeat IPC: 0.0548974 cumulative IPC: 0.0550065 (Simulation time: 0 hr 16 min 28 sec) 
Heartbeat CPU 0 instructions: 130000000 cycles: 1482436517 heartbeat IPC: 0.0556201 cumulative IPC: 0.0550824 (Simulation time: 0 hr 18 min 10 sec) 
Heartbeat CPU 0 instructions: 140000002 cycles: 1663931679 heartbeat IPC: 0.0550979 cumulative IPC: 0.0550842 (Simulation time: 0 hr 19 min 51 sec) 
Heartbeat CPU 0 instructions: 150000001 cycles: 1845565248 heartbeat IPC: 0.0550559 cumulative IPC: 0.0550813 (Simulation time: 0 hr 21 min 31 sec) 
Heartbeat CPU 0 instructions: 160000001 cycles: 2027673465 heartbeat IPC: 0.0549124 cumulative IPC: 0.0550659 (Simulation time: 0 hr 23 min 11 sec) 
Heartbeat CPU 0 instructions: 170000003 cycles: 2208657407 heartbeat IPC: 0.0552535 cumulative IPC: 0.0550815 (Simulation time: 0 hr 24 min 52 sec) 
Heartbeat CPU 0 instructions: 180000001 cycles: 2390525979 heartbeat IPC: 0.0549847 cumulative IPC: 0.0550741 (Simulation time: 0 hr 26 min 33 sec) 
Heartbeat CPU 0 instructions: 190000000 cycles: 2521366278 heartbeat IPC: 0.076429 cumulative IPC: 0.0561956 (Simulation time: 0 hr 27 min 50 sec) 
Heartbeat CPU 0 instructions: 200000002 cycles: 2562192775 heartbeat IPC: 0.244939 cumulative IPC: 0.0592388 (Simulation time: 0 hr 28 min 23 sec) 
Heartbeat CPU 0 instructions: 210000001 cycles: 2744091443 heartbeat IPC: 0.0549757 cumulative IPC: 0.0589531 (Simulation time: 0 hr 30 min 5 sec) 
Heartbeat CPU 0 instructions: 220000000 cycles: 2926376978 heartbeat IPC: 0.054859 cumulative IPC: 0.0586954 (Simulation time: 0 hr 31 min 46 sec) 
Heartbeat CPU 0 instructions: 230000000 cycles: 3108747601 heartbeat IPC: 0.0548334 cumulative IPC: 0.0584666 (Simulation time: 0 hr 33 min 26 sec) 
Heartbeat CPU 0 instructions: 240000002 cycles: 3290192910 heartbeat IPC: 0.055113 cumulative IPC: 0.05828 (Simulation time: 0 hr 35 min 8 sec) 
Heartbeat CPU 0 instructions: 250000003 cycles: 3472184884 heartbeat IPC: 0.0549475 cumulative IPC: 0.0581038 (Simulation time: 0 hr 36 min 49 sec) 
Finished CPU 0 instructions: 200000000 cycles: 3442116645 cumulative IPC: 0.0581038 (Simulation time: 0 hr 36 min 49 sec) 

ChampSim completed all CPUs

Region of Interest Statistics

CPU 0 cumulative IPC: 0.0581038 instructions: 200000000 cycles: 3442116645
ITLB TOTAL     ACCESS:   58904070  HIT:   58904070  MISS:          0  HIT %:        100  MISS %:          0   MPKI: 0
ITLB Test counter:          0
ITLB LOAD TRANSLATION ACCESS:   58904070  HIT:   58904070  MISS:          0  HIT %:        100  MISS %:          0   MPKI: 0
ITLB PREFETCH  REQUESTED:          0  ISSUED:          0  USEFUL:          0  USELESS:          0
ITLB USEFUL LOAD PREFETCHES:          0 PREFETCH ISSUED TO LOWER LEVEL:          0  ACCURACY: -nan
ITLB TIMELY PREFETCHES:          0 LATE PREFETCHES: 0 DROPPED PREFETCHES: 0
ITLB COMMIT LATE PREFETCHES: 0 MISSED OPPORTUNITY: 0 LATE IN PQ: 0 UNCOVERED: 0
ITLB COMMIT LATE MSHR PREFETCHES: 0
ITLB MPKI TOTAL: 0 MSHR LATE: 0 PQ LATE: 0 COMMIT LATE: 0 MISSED OPPORTUNITY: 0 UNCOVERED: 0
ITLB PREFETCHES SAME FILL-ORIGIN LEVEL: 0 DIFFERENT FILL-ORIGIN LEVEL: 0
ITLB AVERAGE MISS LATENCY: -nan cycles
ITLB AVERAGE MISS LATENCY LOAD: -nan cycles
ITLB AVERAGE MISS LATENCY PREFETCH: -nan cycles
ITLB AVERAGE MSHR OCCUPANCY: 0
ITLB MSHR FULL: 0
ITLB RQ	ACCESS:   60032077	FORWARD:          0	MERGED:    1128007	TO_CACHE:   58904070

DTLB TOTAL     ACCESS:   67153378  HIT:   44155930  MISS:   22997448  HIT %:    65.7538  MISS %:    34.2462   MPKI: 114.987
DTLB Test counter:          0
DTLB LOAD TRANSLATION ACCESS:   67153378  HIT:   44155930  MISS:   22997448  HIT %:    65.7538  MISS %:    34.2462   MPKI: 114.987
DTLB PREFETCH  REQUESTED:          0  ISSUED:          0  USEFUL:          0  USELESS:          0
DTLB USEFUL LOAD PREFETCHES:          0 PREFETCH ISSUED TO LOWER LEVEL:          0  ACCURACY: -nan
DTLB TIMELY PREFETCHES:          0 LATE PREFETCHES: 0 DROPPED PREFETCHES: 0
DTLB COMMIT LATE PREFETCHES: 0 MISSED OPPORTUNITY: 0 LATE IN PQ: 0 UNCOVERED: 0
DTLB COMMIT LATE MSHR PREFETCHES: 0
DTLB MPKI TOTAL: 0 MSHR LATE: 0 PQ LATE: 0 COMMIT LATE: 0 MISSED OPPORTUNITY: 0 UNCOVERED: 0
DTLB PREFETCHES SAME FILL-ORIGIN LEVEL: 0 DIFFERENT FILL-ORIGIN LEVEL: 0
DTLB AVERAGE MISS LATENCY: 9.19106 cycles
DTLB AVERAGE MISS LATENCY LOAD: -nan cycles
DTLB AVERAGE MISS LATENCY PREFETCH: -nan cycles
DTLB AVERAGE MSHR OCCUPANCY: 0.201086
DTLB MSHR FULL: 0
DTLB RQ	ACCESS:   67810961	FORWARD:          0	MERGED:     648253	TO_CACHE:   67162708

STLB TOTAL     ACCESS:   22997447  HIT:   22956626  MISS:      40821  HIT %:    99.8225  MISS %:   0.177502   MPKI: 0.204105
STLB Test counter:          0
STLB LOAD TRANSLATION ACCESS:   22997447  HIT:   22956626  MISS:      40821  HIT %:    99.8225  MISS %:   0.177502   MPKI: 0.204105
STLB PREFETCH  REQUESTED:          0  ISSUED:          0  USEFUL:          0  USELESS:          0
STLB USEFUL LOAD PREFETCHES:          0 PREFETCH ISSUED TO LOWER LEVEL:          0  ACCURACY: -nan
STLB TIMELY PREFETCHES:          0 LATE PREFETCHES: 0 DROPPED PREFETCHES: 0
STLB COMMIT LATE PREFETCHES: 0 MISSED OPPORTUNITY: 0 LATE IN PQ: 0 UNCOVERED: 0
STLB COMMIT LATE MSHR PREFETCHES: 0
STLB MPKI TOTAL: 0 MSHR LATE: 0 PQ LATE: 0 COMMIT LATE: 0 MISSED OPPORTUNITY: 0 UNCOVERED: 0
STLB PREFETCHES SAME FILL-ORIGIN LEVEL: 0 DIFFERENT FILL-ORIGIN LEVEL: 0
STLB AVERAGE MISS LATENCY: 103.256 cycles
STLB AVERAGE MISS LATENCY LOAD: -nan cycles
STLB AVERAGE MISS LATENCY PREFETCH: -nan cycles
STLB AVERAGE MSHR OCCUPANCY: 0.000477488
STLB MSHR FULL: 0
STLB RQ	ACCESS:   22997447	FORWARD:          0	MERGED:          0	TO_CACHE:   22997447

STLB Hit, L1D data hit: 0
STLB Hit, L2C data hit: 0
STLB Hit, LLC data hit: 0
STLB Hit, LLC data miss: 0
STLB STLB hints to L2: 0
L1D TOTAL     ACCESS:   66408960  HIT:   31877247  MISS:   34531713  HIT %:    48.0014  MISS %:    51.9986   MPKI: 172.659
L1D Test counter:          0
L1D LOAD      ACCESS:   63839405  HIT:   29373251  MISS:   35131898  HIT %:    46.0112  MISS %:    53.9888   MPKI: 172.331
L1D RFO       ACCESS:    2569555  HIT:    2503996  MISS:      65559  HIT %:    97.4486  MISS %:    2.55138   MPKI: 0.327795
L1D PREFETCH  REQUESTED:          0  ISSUED:          0  USEFUL:          0  USELESS:          0
L1D USEFUL LOAD PREFETCHES:          0 PREFETCH ISSUED TO LOWER LEVEL:          0  ACCURACY: -nan
L1D TIMELY PREFETCHES:          0 LATE PREFETCHES: 0 DROPPED PREFETCHES: 0
L1D COMMIT LATE PREFETCHES: 0 MISSED OPPORTUNITY: 0 LATE IN PQ: 0 UNCOVERED: 0
L1D COMMIT LATE MSHR PREFETCHES: 0
L1D MPKI TOTAL: 175.659 MSHR LATE: 0 PQ LATE: 0 COMMIT LATE: 0 MISSED OPPORTUNITY: 0 UNCOVERED: 0
L1D PREFETCHES SAME FILL-ORIGIN LEVEL: 0 DIFFERENT FILL-ORIGIN LEVEL: 0
L1D AVERAGE MISS LATENCY: 79.3723 cycles
L1D AVERAGE MISS LATENCY LOAD: 79.1679 cycles
L1D AVERAGE MISS LATENCY PREFETCH: -nan cycles
L1D AVERAGE MSHR OCCUPANCY: 0.351342
L1D MSHR FULL: 0
L1D RQ	ACCESS:   77350918	FORWARD:          0	MERGED:   12845761	TO_CACHE:   64505148
L1D WQ	ACCESS:    3305817	FORWARD:          9	MERGED:          4	TO_CACHE:    3305813

L1D UNIQUE REGIONS ACCESSED: 0
L1D REGIONS CONFLICTS: 0
L1D Cross Page Prefetch Requests: 0
L1D Same Page Prefetch Requests: 0
L1D ROI Sum of L1D PQ occupancy: 0
L1D PREFETCHES PUSHED FROM L2C: 0
14f59f3b11d1: 1
55fb304d703f: 1
14f59f3b3760: 1
14f59f3ad67a: 1
14f59f3afee7: 1
55fb304d6fee: 1
14f59f373040: 1
14f59f3ad3c3: 1
14f59f403143: 1
14f59f3ad530: 1
14f59f3dd951: 1
14f59f373230: 1
14f59f3afef2: 1
14f59f3ad3bc: 1
14f59f3ad5e5: 1
14f59f3aa86b: 1
14f59f3ad67e: 1
14f59f3ae461: 1
14f59f3b0cd6: 1
14f59f40d578: 1
14f59f3b11c6: 1
14f59f48426f: 1
14f59f3b0cdd: 1
14f59f48424b: 1
55fb304d702d: 1
55fb304d6fe0: 1
14f59f373100: 1
14f59f4820b0: 1
14f59f3b16d6: 1
14f59f403646: 1
14f59f3ad3cc: 1
55fb304d5510: 1
14f59f484254: 1
14f59f3b16e4: 1
14f59f484247: 1
14f59f484240: 1
14f59f484230: 1
14f59f484264: 1
14f59f3b24f2: 5
55fb304d7093: 7411
55fb304d7050: 7479
55fb304d7075: 8183
55fb304d700d: 65536
55fb304d707b: 77364
55fb304d7000: 131073
55fb304d7054: 141058
55fb304d7060: 2107312
55fb304d706a: 31920695
L1I TOTAL     ACCESS:   60032076  HIT:   60032055  MISS:         21  HIT %:        100  MISS %: 3.49813e-05   MPKI: 0.000105
L1I Test counter:          0
L1I LOAD      ACCESS:   60032076  HIT:   60032055  MISS:         22  HIT %:        100  MISS %: 3.49813e-05   MPKI: 0.000105
L1I PREFETCH  REQUESTED:          0  ISSUED:          0  USEFUL:          0  USELESS:          0
L1I USEFUL LOAD PREFETCHES:          0 PREFETCH ISSUED TO LOWER LEVEL:          0  ACCURACY: -nan
L1I TIMELY PREFETCHES:          0 LATE PREFETCHES: 0 DROPPED PREFETCHES: 0
L1I COMMIT LATE PREFETCHES: 0 MISSED OPPORTUNITY: 0 LATE IN PQ: 0 UNCOVERED: 0
L1I COMMIT LATE MSHR PREFETCHES: 0
L1I MPKI TOTAL: 0.00011 MSHR LATE: 0 PQ LATE: 0 COMMIT LATE: 0 MISSED OPPORTUNITY: 0 UNCOVERED: 0
L1I PREFETCHES SAME FILL-ORIGIN LEVEL: 0 DIFFERENT FILL-ORIGIN LEVEL: 0
L1I AVERAGE MISS LATENCY: 156.857 cycles
L1I AVERAGE MISS LATENCY LOAD: 156.857 cycles
L1I AVERAGE MISS LATENCY PREFETCH: -nan cycles
L1I AVERAGE MSHR OCCUPANCY: 1.33262e-07
L1I MSHR FULL: 0
L1I RQ	ACCESS:   71147554	FORWARD:          0	MERGED:   11115477	TO_CACHE:   60032077

14f59f3a5944: 1
14f59f3b33c4: 1
14f59f3a5396: 1
14f59f3b2400: 1
14f59f3b33b8: 1
14f59f3b266c: 1
14f59f3b2682: 1
14f59f3b31c8: 1
14f59f3a5340: 1
14f59f3a593a: 1
14f59f3af103: 1
14f59f3b1d70: 1
14f59f3b23df: 1
14f59f3af0db: 1
14f59f3a53c0: 1
14f59f3a59b9: 1
14f59f3b2443: 1
14f59f3b24ee: 1
14f59f3b26f2: 1
14f59f3b2f1c: 1
14f59f3b2f41: 1
BTB TOTAL     ACCESS:   37022761  HIT:   37022589  MISS:        172  HIT %:    99.9995  MISS %: 0.000464579   MPKI: 0.00086
BTB Test counter:          0
BTB BRANCH_DIRECT_JUMP	ACCESS:         66  HIT:         33  MISS:         33
BTB BRANCH_INDIRECT	ACCESS:          4  HIT:          0  MISS:          4
BTB BRANCH_CONDITIONAL	ACCESS:   37022625  HIT:   37022536  MISS:         89
BTB BRANCH_DIRECT_CALL	ACCESS:         28  HIT:         10  MISS:         18
BTB BRANCH_INDIRECT_CALL	ACCESS:          5  HIT:          1  MISS:          4
BTB BRANCH_RETURN	ACCESS:         33  HIT:          9  MISS:         24
BTB BRANCH_OTHER ACCESS:          0  HIT:          0  MISS:          0

L2C TOTAL     ACCESS:   40101709  HIT:   12765229  MISS:   27336480  HIT %:    31.8321  MISS %:    68.1679   MPKI: 136.682
L2C Test counter:          0
L2C LOAD      ACCESS:   34466174  HIT:   11887888  MISS:   22578286  HIT %:    34.4915  MISS %:    65.5085   MPKI: 112.891
L2C DATA LOAD MPKI: 112.891
L2C INSTRUCTION LOAD MPKI: 0.000105
L2C RFO       ACCESS:      65559  HIT:         89  MISS:      65470  HIT %:   0.135756  MISS %:    99.8642   MPKI: 0.32735
L2C PREFETCH  ACCESS:    5378009  HIT:     693814  MISS:    4684195  HIT %:    12.9009  MISS %:    87.0991   MPKI: 23.421
L2C DATA PREFETCH MPKI: 23.421
L2C INSTRUCTION PREFETCH MPKI: 0
L2C WRITEBACK ACCESS:     151108  HIT:     149998  MISS:       1110  HIT %:    99.2654  MISS %:   0.734574   MPKI: 0.00555
L2C LOAD TRANSLATION ACCESS:      40859  HIT:      33440  MISS:       7419  HIT %:    81.8424  MISS %:    18.1576   MPKI: 0.037095
L2C PREFETCH  REQUESTED:    8775078  ISSUED:    8775078  USEFUL:    2772879  USELESS:    1911412
L2C USEFUL LOAD PREFETCHES:    2772879 PREFETCH ISSUED TO LOWER LEVEL:    8074414  ACCURACY: 34.3416
L2C TIMELY PREFETCHES:    2772879 LATE PREFETCHES: 164392 DROPPED PREFETCHES: 0
L2C COMMIT LATE PREFETCHES: 0 MISSED OPPORTUNITY: 0 LATE IN PQ: 0 UNCOVERED: 0
L2C COMMIT LATE MSHR PREFETCHES: 0
L2C MPKI TOTAL: 112.891 MSHR LATE: 0.82196 PQ LATE: 0 COMMIT LATE: 0 MISSED OPPORTUNITY: 0 UNCOVERED: 0
L2C PREFETCHES SAME FILL-ORIGIN LEVEL: 4848587 DIFFERENT FILL-ORIGIN LEVEL: 3225827
L2C AVERAGE MISS LATENCY: 107.983 cycles
L2C AVERAGE MISS LATENCY LOAD: 98.0021 cycles
L2C AVERAGE MISS LATENCY PREFETCH: 155.134 cycles
L2C AVERAGE MSHR OCCUPANCY: 0.251091
L2C MSHR FULL: 0
L2C RQ	ACCESS:   34572593	FORWARD:          0	MERGED:          0	TO_CACHE:   34572592
L2C WQ	ACCESS:     151108	FORWARD:          1	MERGED:          0	TO_CACHE:     151108
L2C PQ	ACCESS:    8775078	FORWARD:          0	MERGED:       2760	TO_CACHE:    8772318

L2C Instructions Evicting Data 21
L2C Translations Evicting Data 7419
L2C Data Evicting Data 27320489
L2C Instructions Evicting Instructions 0
L2C Translations Evicting Instructions 0
L2C Data Evicting Instructions 21
L2C Instructions Evicting Translations 0
L2C Translations Evicting Translations 0
L2C Data Evicting Translations 7420
L2C Dense regions hint from L2: 0
14f59f373230: 1
55fb304d5510: 1
14f59f484230: 1
14f59f3b31c8: 1
14f59f3b2682: 1
14f59f3afef2: 1
14f59f3ad67a: 1
14f59f3b3760: 1
14f59f484264: 1
55fb304d6fee: 1
14f59f373040: 1
14f59f3ad3c3: 1
14f59f403143: 1
14f59f3ad530: 1
14f59f3dd951: 1
55fb304d702d: 1
14f59f3b11d1: 1
14f59f3ad3bc: 1
14f59f3ad5e5: 1
14f59f3aa86b: 1
14f59f3af0db: 1
14f59f3af103: 1
14f59f3ad67e: 1
14f59f3ae461: 1
14f59f3b33b8: 1
14f59f3b0cd6: 1
14f59f40d578: 1
14f59f3b11c6: 1
14f59f48426f: 1
14f59f3b0cdd: 1
14f59f3a53c0: 1
14f59f3b266c: 1
14f59f484240: 1
14f59f403646: 1
14f59f3a5944: 1
14f59f3a593a: 1
14f59f3a5340: 1
14f59f3b26f2: 1
14f59f3a5396: 1
14f59f3b24ee: 1
14f59f3b33c4: 1
14f59f3b16d6: 1
14f59f4820b0: 1
14f59f3b2f41: 1
14f59f3b1d70: 1
55fb304d6fe0: 1
55fb304d703f: 1
14f59f3b2443: 1
14f59f484247: 1
14f59f3a59b9: 1
14f59f3b16e4: 1
14f59f48424b: 1
14f59f484254: 1
14f59f3b23df: 1
14f59f3b2400: 1
14f59f3b2f1c: 1
14f59f3b24f2: 5
55fb304d7050: 282
55fb304d7075: 1128
55fb304d700d: 1458
55fb304d7093: 2617
55fb304d7000: 4758
55fb304d7054: 7991
55fb304d707b: 8355
55fb304d7060: 77534
55fb304d706a: 22474102
PSCL5 TOTAL     ACCESS:      40821  HIT:      40821  MISS:          0  HIT %:        100  MISS %:          0   MPKI: 0
PSCL5 Test counter:          0
PSCL5 LOAD TRANSLATION ACCESS:      40821  HIT:      40821  MISS:          0  HIT %:        100  MISS %:          0   MPKI: 0
PSCL5 PREFETCH  REQUESTED:          0  ISSUED:          0  USEFUL:          0  USELESS:          0
PSCL5 USEFUL LOAD PREFETCHES:          0 PREFETCH ISSUED TO LOWER LEVEL:          0  ACCURACY: -nan
PSCL5 TIMELY PREFETCHES:          0 LATE PREFETCHES: 0 DROPPED PREFETCHES: 0
PSCL5 COMMIT LATE PREFETCHES: 0 MISSED OPPORTUNITY: 0 LATE IN PQ: 0 UNCOVERED: 0
PSCL5 COMMIT LATE MSHR PREFETCHES: 0
PSCL5 MPKI TOTAL: 0 MSHR LATE: 0 PQ LATE: 0 COMMIT LATE: 0 MISSED OPPORTUNITY: 0 UNCOVERED: 0
PSCL5 PREFETCHES SAME FILL-ORIGIN LEVEL: 0 DIFFERENT FILL-ORIGIN LEVEL: 0

PSCL4 TOTAL     ACCESS:      40821  HIT:      40821  MISS:          0  HIT %:        100  MISS %:          0   MPKI: 0
PSCL4 Test counter:          0
PSCL4 LOAD TRANSLATION ACCESS:      40821  HIT:      40821  MISS:          0  HIT %:        100  MISS %:          0   MPKI: 0
PSCL4 PREFETCH  REQUESTED:          0  ISSUED:          0  USEFUL:          0  USELESS:          0
PSCL4 USEFUL LOAD PREFETCHES:          0 PREFETCH ISSUED TO LOWER LEVEL:          0  ACCURACY: -nan
PSCL4 TIMELY PREFETCHES:          0 LATE PREFETCHES: 0 DROPPED PREFETCHES: 0
PSCL4 COMMIT LATE PREFETCHES: 0 MISSED OPPORTUNITY: 0 LATE IN PQ: 0 UNCOVERED: 0
PSCL4 COMMIT LATE MSHR PREFETCHES: 0
PSCL4 MPKI TOTAL: 0 MSHR LATE: 0 PQ LATE: 0 COMMIT LATE: 0 MISSED OPPORTUNITY: 0 UNCOVERED: 0
PSCL4 PREFETCHES SAME FILL-ORIGIN LEVEL: 0 DIFFERENT FILL-ORIGIN LEVEL: 0

PSCL3 TOTAL     ACCESS:      40821  HIT:      40821  MISS:          0  HIT %:        100  MISS %:          0   MPKI: 0
PSCL3 Test counter:          0
PSCL3 LOAD TRANSLATION ACCESS:      40821  HIT:      40821  MISS:          0  HIT %:        100  MISS %:          0   MPKI: 0
PSCL3 PREFETCH  REQUESTED:          0  ISSUED:          0  USEFUL:          0  USELESS:          0
PSCL3 USEFUL LOAD PREFETCHES:          0 PREFETCH ISSUED TO LOWER LEVEL:          0  ACCURACY: -nan
PSCL3 TIMELY PREFETCHES:          0 LATE PREFETCHES: 0 DROPPED PREFETCHES: 0
PSCL3 COMMIT LATE PREFETCHES: 0 MISSED OPPORTUNITY: 0 LATE IN PQ: 0 UNCOVERED: 0
PSCL3 COMMIT LATE MSHR PREFETCHES: 0
PSCL3 MPKI TOTAL: 0 MSHR LATE: 0 PQ LATE: 0 COMMIT LATE: 0 MISSED OPPORTUNITY: 0 UNCOVERED: 0
PSCL3 PREFETCHES SAME FILL-ORIGIN LEVEL: 0 DIFFERENT FILL-ORIGIN LEVEL: 0

PSCL2 TOTAL     ACCESS:      40821  HIT:      40736  MISS:         85  HIT %:    99.7918  MISS %:   0.208226   MPKI: 0.000425
PSCL2 Test counter:          0
PSCL2 LOAD TRANSLATION ACCESS:      40821  HIT:      40736  MISS:         85  HIT %:    99.7918  MISS %:   0.208226   MPKI: 0.000425
PSCL2 PREFETCH  REQUESTED:          0  ISSUED:          0  USEFUL:          0  USELESS:          0
PSCL2 USEFUL LOAD PREFETCHES:          0 PREFETCH ISSUED TO LOWER LEVEL:          0  ACCURACY: -nan
PSCL2 TIMELY PREFETCHES:          0 LATE PREFETCHES: 0 DROPPED PREFETCHES: 0
PSCL2 COMMIT LATE PREFETCHES: 0 MISSED OPPORTUNITY: 0 LATE IN PQ: 0 UNCOVERED: 0
PSCL2 COMMIT LATE MSHR PREFETCHES: 0
PSCL2 MPKI TOTAL: 0 MSHR LATE: 0 PQ LATE: 0 COMMIT LATE: 0 MISSED OPPORTUNITY: 0 UNCOVERED: 0
PSCL2 PREFETCHES SAME FILL-ORIGIN LEVEL: 0 DIFFERENT FILL-ORIGIN LEVEL: 0

LLC TOTAL     ACCESS:   30645249  HIT:   15038994  MISS:   15606255  HIT %:    49.0745  MISS %:    50.9255   MPKI: 78.0313
LLC Test counter:          0
LLC LOAD      ACCESS:   22413894  HIT:   12714566  MISS:    9699328  HIT %:    56.7263  MISS %:    43.2737   MPKI: 48.4966
LLC RFO       ACCESS:      65470  HIT:       1469  MISS:      64001  HIT %:    2.24378  MISS %:    97.7562   MPKI: 0.320005
LLC PREFETCH  ACCESS:    8020025  HIT:    2183125  MISS:    5836900  HIT %:    27.2209  MISS %:    72.7791   MPKI: 29.1845
LLC WRITEBACK ACCESS:     138441  HIT:     138052  MISS:        389  HIT %:     99.719  MISS %:   0.280986   MPKI: 0.001945
LLC LOAD TRANSLATION ACCESS:       7419  HIT:       1782  MISS:       5637  HIT %:    24.0194  MISS %:    75.9806   MPKI: 0.028185
LLC PREFETCH  REQUESTED:          0  ISSUED:          0  USEFUL:     794585  USELESS:    5043878
LLC USEFUL LOAD PREFETCHES:     794585 PREFETCH ISSUED TO LOWER LEVEL:    5871830  ACCURACY: 13.5322
LLC TIMELY PREFETCHES:     794585 LATE PREFETCHES: 34930 DROPPED PREFETCHES: 0
LLC COMMIT LATE PREFETCHES: 0 MISSED OPPORTUNITY: 0 LATE IN PQ: 0 UNCOVERED: 0
LLC COMMIT LATE MSHR PREFETCHES: 0
LLC MPKI TOTAL: 48.4966 MSHR LATE: 0.17465 PQ LATE: 0 COMMIT LATE: 0 MISSED OPPORTUNITY: 0 UNCOVERED: 0
LLC PREFETCHES SAME FILL-ORIGIN LEVEL: 1875584 DIFFERENT FILL-ORIGIN LEVEL: 0
LLC AVERAGE MISS LATENCY: 154.415 cycles
LLC AVERAGE MISS LATENCY LOAD: 157.201 cycles
LLC AVERAGE MISS LATENCY PREFETCH: 149.875 cycles
LLC AVERAGE MSHR OCCUPANCY: 0.230985
LLC MSHR FULL: 0
LLC RQ	ACCESS:   22486783	FORWARD:          0	MERGED:          0	TO_CACHE:   22486783
LLC WQ	ACCESS:     138441	FORWARD:          0	MERGED:          0	TO_CACHE:     138441
LLC PQ	ACCESS:    8074414	FORWARD:          0	MERGED:          1	TO_CACHE:    8074413

LLC Dense regions hint to LLC: 0
14f59f373230: 1
55fb304d5510: 1
14f59f484230: 1
55fb304d703f: 1
14f59f3b2682: 1
14f59f3b31c8: 1
14f59f3b3760: 1
14f59f3ad67a: 1
14f59f3afef2: 1
55fb304d6fee: 1
14f59f373040: 1
14f59f3ad3c3: 1
14f59f403143: 1
14f59f3ad530: 1
14f59f3dd951: 1
14f59f484264: 1
14f59f3b11d1: 1
14f59f3ad3bc: 1
14f59f3ad5e5: 1
14f59f3aa86b: 1
14f59f3af0db: 1
14f59f3af103: 1
14f59f3ad67e: 1
14f59f3ae461: 1
14f59f3b33b8: 1
14f59f3b0cd6: 1
14f59f40d578: 1
14f59f3b11c6: 1
14f59f48426f: 1
14f59f3b0cdd: 1
14f59f3a53c0: 1
14f59f3b266c: 1
14f59f484240: 1
14f59f403646: 1
14f59f3a5944: 1
14f59f3a593a: 1
14f59f3a5340: 1
14f59f3b26f2: 1
14f59f3a5396: 1
14f59f3b24ee: 1
14f59f3b33c4: 1
14f59f3b16d6: 1
14f59f4820b0: 1
14f59f3b2f41: 1
14f59f3b1d70: 1
55fb304d6fe0: 1
55fb304d702d: 1
14f59f48424b: 1
14f59f484247: 1
14f59f3a59b9: 1
14f59f3b16e4: 1
14f59f484254: 1
14f59f3b23df: 1
14f59f3b2400: 1
14f59f3b2f1c: 1
14f59f3b2443: 1
14f59f3b24f2: 5
55fb304d7050: 27
55fb304d7075: 70
55fb304d7093: 181
55fb304d700d: 1444
55fb304d7000: 3116
55fb304d707b: 7102
55fb304d7054: 7558
55fb304d7060: 44761
55fb304d706a: 9635008

RAW hits: 23
Loads Generated: 77350942
Loads sent to L1D: 77350918
Stores Generated: 3305817
Stores sent to L1D: 3305817
Major fault: 0 Minor fault: 34901
Allocated PAGES: 34901
Total Load insts: 95645266
Total Non-spec loads: 44617175
Percentage of speculative loads: 53.3514
L1D response latency: 79.1679 cycles
Load retirement latency: 220.421 cycles

------------------
Depth Distribution
------------------
depth 0: 32620178
depth 1: 5796507
depth 2: 651525
depth 3: 1119578
depth 4: 821103
depth 5: 258910
depth 6: 18500
depth 7: 385
depth 8: 298
depth 9: 5484
depth 10: 7610
depth 11: 134582
depth 12: 140031
depth 13: 34478
depth 14: 68548
depth 15: 908
depth 16: 275
depth 17: 74
depth 18: 21
depth 19: 2
depth 20: 0
depth 21: 0
depth 22: 0
depth 23: 0
depth 24: 0
depth 25: 0
depth 26: 0
depth 27: 0
depth 28: 0
depth 29: 0
Total: 41678997
------------------
ST read accesses: 15769510
ST write accesses: 18696643
PT read accesses: 270746620
PT write accesses: 15803599
FILTER read accesses: 137632870
FILTER write accesses: 92373378
GHR read accesses: 157826605
GHR write accesses: 946983
PERC read accesses: 1812795309
PERC write accesses: 80128270
GHR counter read accesses: 68932306
GHR counter write accesses: 44151869
GHR ip read accesses: 204353061
GHR ip write accesses: 137864612
ST tag read accesses: 22824738505
ST tag write accesses: 5344494968

DRAM Statistics
 CHANNEL 0
 RQ ROW_BUFFER_HIT:    2944946  ROW_BUFFER_MISS:   12660919
 DBUS_CONGESTED:       1788
 WQ ROW_BUFFER_HIT:      59884  ROW_BUFFER_MISS:      76523  FULL:          0

 AVG_CONGESTED_CYCLE: 5
 All warmup complete: 2
Channel 0 Bank busy for read cycles: 0
Channel 0 Bank busy for write cycles: 0
Channel 0
Rank 0
0banks busy for read cycles: 1779671690
0banks busy for write cycles: 69226
1banks busy for read cycles: 1336024614
1banks busy for write cycles: 15449236
2banks busy for read cycles: 230978296
2banks busy for write cycles: 1459572
3banks busy for read cycles: 57995868
3banks busy for write cycles: 483814
4banks busy for read cycles: 13129501
4banks busy for write cycles: 265515
5banks busy for read cycles: 2979873
5banks busy for write cycles: 219451
6banks busy for read cycles: 837618
6banks busy for write cycles: 206397
7banks busy for read cycles: 140358
7banks busy for write cycles: 291699
8banks busy for read cycles: 126838
8banks busy for write cycles: 1787080

CPU 0 Branch Prediction Accuracy: 96.9509% MPKI: 5.6443 Average ROB Occupancy at Mispredict: 137.609
Branch types
NOT_BRANCH: 162977016 81.4885%
BRANCH_DIRECT_JUMP: 66 3.3e-05%
BRANCH_INDIRECT: 4 2e-06%
BRANCH_CONDITIONAL: 37022851 18.5114%
BRANCH_DIRECT_CALL: 28 1.4e-05%
BRANCH_INDIRECT_CALL: 5 2.5e-06%
BRANCH_RETURN: 33 1.65e-05%
BRANCH_OTHER: 0 0%

DRAM PAGES: 1048576
Allocated PAGES: 34901
