Initialize SIGNATURE TABLE
ST_SET: 1
ST_WAY: 256
ST_TAG_BIT: 16
ST_TAG_MASK: ffff

Initialize PATTERN TABLE
PT_SET: 512
PT_WAY: 4
SIG_DELTA_BIT: 7
C_SIG_BIT: 4
C_DELTA_BIT: 4

Initialize PREFETCH FILTER
FILTER_SET: 1024

Initialize PERCEPTRON
PERC_ENTRIES: 4096
PERC_FEATURES: 9

*** ChampSim Multicore Out-of-Order Simulator ***

Warmup Instructions: 50000000
Simulation Instructions: 200000000
Number of CPUs: 1
LLC sets: 2048
LLC ways: 16
Secure Berti: OFF
Berti: OFF
Berti Fill: OFF
On commit prefetching: OFF
L2 LLC Bypass speculative loads: OFF
Off-chip DRAM Size: 4096 MB Channels: 1 Width: 64-bit Data Rate: 6400 MT/s
CPU 0 runs /home/sumon/secure_berti/Berti_Baseline/../../traces/gap/sssp-10.trace.gz
.gz
BTB has LRU replacement policy
ITLB has LRU replacement policy
DTLB has LRU replacement policy
STLB has LRU replacement policy
L1I has LRU replacement policy
L1D has LRU replacement policy
PERC_ENTRIES: 4096
L2C has LRU replacement policy
LLC has LRU replacement policy
Heartbeat CPU 0 instructions: 10000000 cycles: 3081753 heartbeat IPC: 3.24491 cumulative IPC: 3.24491 (Simulation time: 0 hr 0 min 27 sec) 
Heartbeat CPU 0 instructions: 20000003 cycles: 6135433 heartbeat IPC: 3.27474 cumulative IPC: 3.25975 (Simulation time: 0 hr 0 min 49 sec) 
Heartbeat CPU 0 instructions: 30000001 cycles: 9209479 heartbeat IPC: 3.25304 cumulative IPC: 3.25751 (Simulation time: 0 hr 1 min 14 sec) 
Heartbeat CPU 0 instructions: 40000002 cycles: 12295915 heartbeat IPC: 3.23998 cumulative IPC: 3.25311 (Simulation time: 0 hr 1 min 47 sec) 
Heartbeat CPU 0 instructions: 50000001 cycles: 15388307 heartbeat IPC: 3.23374 cumulative IPC: 3.24922 (Simulation time: 0 hr 2 min 22 sec) 

Warmup complete CPU 0 instructions: 50000001 cycles: 15388307 (Simulation time: 0 hr 2 min 22 sec) 

Heartbeat CPU 0 instructions: 60000000 cycles: 45467026 heartbeat IPC: 0.332461 cumulative IPC: 0.332461 (Simulation time: 0 hr 3 min 25 sec) 
Heartbeat CPU 0 instructions: 70000000 cycles: 74468841 heartbeat IPC: 0.344806 cumulative IPC: 0.338521 (Simulation time: 0 hr 4 min 32 sec) 
Heartbeat CPU 0 instructions: 80000001 cycles: 102971922 heartbeat IPC: 0.350839 cumulative IPC: 0.34253 (Simulation time: 0 hr 5 min 41 sec) 
Heartbeat CPU 0 instructions: 90000000 cycles: 130409735 heartbeat IPC: 0.36446 cumulative IPC: 0.347761 (Simulation time: 0 hr 6 min 50 sec) 
Heartbeat CPU 0 instructions: 100000000 cycles: 157813900 heartbeat IPC: 0.364908 cumulative IPC: 0.35106 (Simulation time: 0 hr 8 min 0 sec) 
Heartbeat CPU 0 instructions: 110000000 cycles: 184747558 heartbeat IPC: 0.371283 cumulative IPC: 0.354276 (Simulation time: 0 hr 9 min 10 sec) 
Heartbeat CPU 0 instructions: 120000003 cycles: 211379254 heartbeat IPC: 0.375493 cumulative IPC: 0.357159 (Simulation time: 0 hr 10 min 21 sec) 
Heartbeat CPU 0 instructions: 130000002 cycles: 237695072 heartbeat IPC: 0.38 cumulative IPC: 0.359863 (Simulation time: 0 hr 11 min 34 sec) 
Heartbeat CPU 0 instructions: 140000002 cycles: 263739523 heartbeat IPC: 0.383959 cumulative IPC: 0.36239 (Simulation time: 0 hr 12 min 47 sec) 
Heartbeat CPU 0 instructions: 150000000 cycles: 289658723 heartbeat IPC: 0.385814 cumulative IPC: 0.364604 (Simulation time: 0 hr 13 min 26 sec) 
Heartbeat CPU 0 instructions: 160000001 cycles: 315424484 heartbeat IPC: 0.388112 cumulative IPC: 0.366622 (Simulation time: 0 hr 13 min 57 sec) 
Heartbeat CPU 0 instructions: 170000002 cycles: 341044516 heartbeat IPC: 0.39032 cumulative IPC: 0.368487 (Simulation time: 0 hr 14 min 27 sec) 
Heartbeat CPU 0 instructions: 180000001 cycles: 366700869 heartbeat IPC: 0.389767 cumulative IPC: 0.370041 (Simulation time: 0 hr 14 min 58 sec) 
Heartbeat CPU 0 instructions: 190000002 cycles: 391760977 heartbeat IPC: 0.399041 cumulative IPC: 0.371972 (Simulation time: 0 hr 15 min 29 sec) 
Heartbeat CPU 0 instructions: 200000003 cycles: 416754880 heartbeat IPC: 0.400098 cumulative IPC: 0.373723 (Simulation time: 0 hr 16 min 0 sec) 
Heartbeat CPU 0 instructions: 210000003 cycles: 441926593 heartbeat IPC: 0.397271 cumulative IPC: 0.375113 (Simulation time: 0 hr 16 min 31 sec) 
Heartbeat CPU 0 instructions: 220000000 cycles: 466891458 heartbeat IPC: 0.400563 cumulative IPC: 0.37652 (Simulation time: 0 hr 17 min 3 sec) 
Heartbeat CPU 0 instructions: 230000001 cycles: 491616790 heartbeat IPC: 0.404444 cumulative IPC: 0.37797 (Simulation time: 0 hr 17 min 33 sec) 
Heartbeat CPU 0 instructions: 240000001 cycles: 516334917 heartbeat IPC: 0.404561 cumulative IPC: 0.379282 (Simulation time: 0 hr 18 min 4 sec) 
Heartbeat CPU 0 instructions: 250000000 cycles: 541056015 heartbeat IPC: 0.404513 cumulative IPC: 0.380468 (Simulation time: 0 hr 18 min 35 sec) 
Finished CPU 0 instructions: 200000003 cycles: 525667709 cumulative IPC: 0.380468 (Simulation time: 0 hr 18 min 35 sec) 

ChampSim completed all CPUs

Region of Interest Statistics

CPU 0 cumulative IPC: 0.380468 instructions: 200000003 cycles: 525667709
ITLB TOTAL     ACCESS:   24402555  HIT:   24402555  MISS:          0  HIT %:        100  MISS %:          0   MPKI: 0
ITLB Test counter:          0
ITLB LOAD TRANSLATION ACCESS:   24402555  HIT:   24402555  MISS:          0  HIT %:        100  MISS %:          0   MPKI: 0
ITLB PREFETCH  REQUESTED:          0  ISSUED:          0  USEFUL:          0  USELESS:          0
ITLB USEFUL LOAD PREFETCHES:          0 PREFETCH ISSUED TO LOWER LEVEL:          0  ACCURACY: -nan
ITLB TIMELY PREFETCHES:          0 LATE PREFETCHES: 0 DROPPED PREFETCHES: 0
ITLB COMMIT LATE PREFETCHES: 0 MISSED OPPORTUNITY: 0 LATE IN PQ: 0 UNCOVERED: 0
ITLB COMMIT LATE MSHR PREFETCHES: 0
ITLB MPKI TOTAL: 0 MSHR LATE: 0 PQ LATE: 0 COMMIT LATE: 0 MISSED OPPORTUNITY: 0 UNCOVERED: 0
ITLB PREFETCHES SAME FILL-ORIGIN LEVEL: 0 DIFFERENT FILL-ORIGIN LEVEL: 0
ITLB AVERAGE MISS LATENCY: -nan cycles
ITLB AVERAGE MISS LATENCY LOAD: -nan cycles
ITLB AVERAGE MISS LATENCY PREFETCH: -nan cycles
ITLB AVERAGE MSHR OCCUPANCY: 0
ITLB MSHR FULL: 0
ITLB RQ	ACCESS:   25066717	FORWARD:          0	MERGED:     664162	TO_CACHE:   24402555

DTLB TOTAL     ACCESS:   43354885  HIT:   38679901  MISS:    4674984  HIT %:    89.2169  MISS %:    10.7831   MPKI: 23.3749
DTLB Test counter:          0
DTLB LOAD TRANSLATION ACCESS:   43354885  HIT:   38679901  MISS:    4674984  HIT %:    89.2169  MISS %:    10.7831   MPKI: 23.3749
DTLB PREFETCH  REQUESTED:          0  ISSUED:          0  USEFUL:          0  USELESS:          0
DTLB USEFUL LOAD PREFETCHES:          0 PREFETCH ISSUED TO LOWER LEVEL:          0  ACCURACY: -nan
DTLB TIMELY PREFETCHES:          0 LATE PREFETCHES: 0 DROPPED PREFETCHES: 0
DTLB COMMIT LATE PREFETCHES: 0 MISSED OPPORTUNITY: 0 LATE IN PQ: 0 UNCOVERED: 0
DTLB COMMIT LATE MSHR PREFETCHES: 0
DTLB MPKI TOTAL: 0 MSHR LATE: 0 PQ LATE: 0 COMMIT LATE: 0 MISSED OPPORTUNITY: 0 UNCOVERED: 0
DTLB PREFETCHES SAME FILL-ORIGIN LEVEL: 0 DIFFERENT FILL-ORIGIN LEVEL: 0
DTLB AVERAGE MISS LATENCY: 11.7052 cycles
DTLB AVERAGE MISS LATENCY LOAD: -nan cycles
DTLB AVERAGE MISS LATENCY PREFETCH: -nan cycles
DTLB AVERAGE MSHR OCCUPANCY: 0.175454
DTLB MSHR FULL: 1.83876e-07
DTLB RQ	ACCESS:   45649247	FORWARD:          0	MERGED:    2141727	TO_CACHE:   43507520

STLB TOTAL     ACCESS:    4674984  HIT:    4614451  MISS:      60533  HIT %:    98.7052  MISS %:    1.29483   MPKI: 0.302665
STLB Test counter:          0
STLB LOAD TRANSLATION ACCESS:    4674984  HIT:    4614451  MISS:      60533  HIT %:    98.7052  MISS %:    1.29483   MPKI: 0.302665
STLB PREFETCH  REQUESTED:          0  ISSUED:          0  USEFUL:          0  USELESS:          0
STLB USEFUL LOAD PREFETCHES:          0 PREFETCH ISSUED TO LOWER LEVEL:          0  ACCURACY: -nan
STLB TIMELY PREFETCHES:          0 LATE PREFETCHES: 0 DROPPED PREFETCHES: 0
STLB COMMIT LATE PREFETCHES: 0 MISSED OPPORTUNITY: 0 LATE IN PQ: 0 UNCOVERED: 0
STLB COMMIT LATE MSHR PREFETCHES: 0
STLB MPKI TOTAL: 0 MSHR LATE: 0 PQ LATE: 0 COMMIT LATE: 0 MISSED OPPORTUNITY: 0 UNCOVERED: 0
STLB PREFETCHES SAME FILL-ORIGIN LEVEL: 0 DIFFERENT FILL-ORIGIN LEVEL: 0
STLB AVERAGE MISS LATENCY: 191.332 cycles
STLB AVERAGE MISS LATENCY LOAD: -nan cycles
STLB AVERAGE MISS LATENCY PREFETCH: -nan cycles
STLB AVERAGE MSHR OCCUPANCY: 0.00574954
STLB MSHR FULL: 0
STLB RQ	ACCESS:    4674984	FORWARD:          0	MERGED:          0	TO_CACHE:    4674984

STLB Hit, L1D data hit: 0
STLB Hit, L2C data hit: 0
STLB Hit, LLC data hit: 0
STLB Hit, LLC data miss: 0
STLB STLB hints to L2: 0
L1D TOTAL     ACCESS:   44879043  HIT:   34034760  MISS:   10844283  HIT %:    75.8366  MISS %:    24.1634   MPKI: 54.2214
L1D Test counter:          0
L1D LOAD      ACCESS:   42847175  HIT:   32472317  MISS:   10960851  HIT %:    75.7864  MISS %:    24.2136   MPKI: 51.8743
L1D RFO       ACCESS:    2031868  HIT:    1562443  MISS:     469425  HIT %:    76.8969  MISS %:    23.1031   MPKI: 2.34712
L1D PREFETCH  REQUESTED:          0  ISSUED:          0  USEFUL:          0  USELESS:          0
L1D USEFUL LOAD PREFETCHES:          0 PREFETCH ISSUED TO LOWER LEVEL:          0  ACCURACY: -nan
L1D TIMELY PREFETCHES:          0 LATE PREFETCHES: 0 DROPPED PREFETCHES: 0
L1D COMMIT LATE PREFETCHES: 0 MISSED OPPORTUNITY: 0 LATE IN PQ: 0 UNCOVERED: 0
L1D COMMIT LATE MSHR PREFETCHES: 0
L1D MPKI TOTAL: 54.8043 MSHR LATE: 0 PQ LATE: 0 COMMIT LATE: 0 MISSED OPPORTUNITY: 0 UNCOVERED: 0
L1D PREFETCHES SAME FILL-ORIGIN LEVEL: 0 DIFFERENT FILL-ORIGIN LEVEL: 0
L1D AVERAGE MISS LATENCY: 82.6849 cycles
L1D AVERAGE MISS LATENCY LOAD: 83.0918 cycles
L1D AVERAGE MISS LATENCY PREFETCH: -nan cycles
L1D AVERAGE MSHR OCCUPANCY: 1.765
L1D MSHR FULL: 0.0258976
L1D RQ	ACCESS:   76736332	FORWARD:          0	MERGED:   33298665	TO_CACHE:   43433167
L1D WQ	ACCESS:    2216772	FORWARD:       4500	MERGED:        692	TO_CACHE:    2216080

L1D UNIQUE REGIONS ACCESSED: 0
L1D REGIONS CONFLICTS: 0
L1D Cross Page Prefetch Requests: 0
L1D Same Page Prefetch Requests: 0
L1D ROI Sum of L1D PQ occupancy: 0
L1D PREFETCHES PUSHED FROM L2C: 0
56546d1c24af: 1
56546d1c24aa: 1
56546d1c21c5: 1
56546d1c248c: 1
56546d1c0710: 1
14aace2a7646: 1
14aace2a758f: 1
56546d1c2485: 1
56546d1c25c5: 1
56546d1c2442: 1
7ffd9c71bd75: 1
14aace2a75d0: 1
14aace2a76c3: 2
14aace2a75c5: 2
14aace2a7477: 2
14aace2a75d4: 2
14aace284457: 3
14aace28120e: 3
14aace280913: 4
14aace281252: 5
14aace283d67: 5
56546d1c2568: 5
14aace28124c: 6
14aace2843a4: 7
14aace28445d: 7
14aace28444d: 7
14aace280f2b: 7
56546d1c2322: 8
56546d1c2585: 8
14aace2a764b: 8
14aace28113f: 8
14aace28121e: 9
14aace2a7650: 9
14aace28439a: 9
14aace283d3b: 11
14aace280795: 12
14aace283ccc: 12
14aace283cf9: 13
14aace28438c: 14
14aace28115a: 14
14aace28320e: 15
14aace283e41: 15
14aace283207: 16
14aace2831f4: 16
14aace280f19: 17
14aace280e6c: 19
14aace28431c: 19
14aace283a12: 20
14aace280f46: 20
56546d1c24d3: 22
14aace281106: 23
14aace28062d: 23
14aace2a7641: 23
14aace28112d: 23
14aace283d4d: 24
14aace281135: 26
14aace2a763e: 27
14aace283d43: 27
14aace2a7672: 29
14aace280e97: 30
14aace2a7686: 30
14aace280ebb: 30
56546d1c2317: 31
14aace280867: 33
14aace280896: 33
14aace2810ec: 33
14aace2a774a: 46
14aace283d7f: 46
14aace280eb2: 46
14aace283971: 47
14aace28399f: 47
14aace283a09: 47
56546d1c2539: 47
56546d1c2327: 47
14aace283cde: 47
14aace2839a6: 47
56546d1c232f: 48
14aace281174: 50
14aace28110a: 51
14aace283c95: 53
14aace283a27: 53
14aace283c4f: 53
14aace283c61: 53
14aace283c45: 56
14aace2810e6: 57
14aace283cd4: 57
14aace2a76cb: 57
14aace280c11: 58
14aace283cb6: 58
14aace283c88: 60
14aace2a76cf: 60
14aace2a76c7: 63
14aace2805a7: 66
14aace280c15: 75
14aace281123: 77
14aace280ef2: 77
14aace280f10: 88
14aace283c6b: 100
14aace28398d: 100
14aace280bf5: 101
14aace2810f0: 110
14aace2808f4: 139
14aace28060d: 163
14aace2a76d3: 175
14aace2808e8: 194
14aace28065b: 205
14aace280f73: 211
14aace2a76f6: 226
14aace2a76c4: 232
14aace28058f: 234
14aace283d1a: 239
14aace280574: 243
14aace2804f8: 243
14aace2830e3: 243
14aace283e55: 243
14aace280323: 244
14aace2805f4: 247
14aace2830cf: 256
14aace2830af: 256
14aace283076: 257
56546d1c0720: 257
14aace283961: 257
14aacec1d3f0: 257
14aace2830c1: 257
14aacec1cb30: 258
56546d1c05b0: 258
14aace28307d: 258
14aace283978: 258
56546d1c0580: 258
14aace280581: 273
14aace2a7682: 536
14aace2a767f: 1265
56546d1c21eb: 1607
14aace2a768a: 3126
56546d1c21e3: 3194
56546d1c21b8: 4044
14aace2a770e: 12223
56546d1c21e7: 12716
56546d1c21d5: 12972
14aace2a7703: 13984
14aace2a7706: 14660
14aace2a770a: 14864
56546d1c22dc: 28563
56546d1c22d8: 222125
56546d1c2200: 1165430
56546d1c2226: 8853722
L1I TOTAL     ACCESS:   25066717  HIT:   25066717  MISS:          0  HIT %:        100  MISS %:          0   MPKI: 0
L1I Test counter:          0
L1I LOAD      ACCESS:   25066717  HIT:   25066717  MISS:          0  HIT %:        100  MISS %:          0   MPKI: 0
L1I PREFETCH  REQUESTED:          0  ISSUED:          0  USEFUL:          0  USELESS:          0
L1I USEFUL LOAD PREFETCHES:          0 PREFETCH ISSUED TO LOWER LEVEL:          0  ACCURACY: -nan
L1I TIMELY PREFETCHES:          0 LATE PREFETCHES: 0 DROPPED PREFETCHES: 0
L1I COMMIT LATE PREFETCHES: 0 MISSED OPPORTUNITY: 0 LATE IN PQ: 0 UNCOVERED: 0
L1I COMMIT LATE MSHR PREFETCHES: 0
L1I MPKI TOTAL: 0 MSHR LATE: 0 PQ LATE: 0 COMMIT LATE: 0 MISSED OPPORTUNITY: 0 UNCOVERED: 0
L1I PREFETCHES SAME FILL-ORIGIN LEVEL: 0 DIFFERENT FILL-ORIGIN LEVEL: 0
L1I AVERAGE MISS LATENCY: -nan cycles
L1I AVERAGE MISS LATENCY LOAD: -nan cycles
L1I AVERAGE MISS LATENCY PREFETCH: -nan cycles
L1I AVERAGE MSHR OCCUPANCY: 0
L1I MSHR FULL: 0
L1I RQ	ACCESS:   38900941	FORWARD:          0	MERGED:   13834224	TO_CACHE:   25066717

BTB TOTAL     ACCESS:   29056031  HIT:   29055886  MISS:        145  HIT %:    99.9995  MISS %: 0.000499036   MPKI: 0.000725
BTB Test counter:          0
BTB BRANCH_DIRECT_JUMP	ACCESS:    9225403  HIT:    9225362  MISS:         41
BTB BRANCH_INDIRECT	ACCESS:          0  HIT:          0  MISS:          0
BTB BRANCH_CONDITIONAL	ACCESS:   19828000  HIT:   19827919  MISS:         81
BTB BRANCH_DIRECT_CALL	ACCESS:       1314  HIT:       1305  MISS:          9
BTB BRANCH_INDIRECT_CALL	ACCESS:          0  HIT:          0  MISS:          0
BTB BRANCH_RETURN	ACCESS:       1314  HIT:       1300  MISS:         14
BTB BRANCH_OTHER ACCESS:          0  HIT:          0  MISS:          0

L2C TOTAL     ACCESS:   14427145  HIT:    5394016  MISS:    9033129  HIT %:     37.388  MISS %:     62.612   MPKI: 45.1656
L2C Test counter:          0
L2C LOAD      ACCESS:   10374857  HIT:    3468199  MISS:    6906660  HIT %:    33.4289  MISS %:    66.5711   MPKI: 34.5333
L2C DATA LOAD MPKI: 34.5333
L2C INSTRUCTION LOAD MPKI: 0
L2C RFO       ACCESS:     469417  HIT:     294209  MISS:     175208  HIT %:    62.6754  MISS %:    37.3246   MPKI: 0.87604
L2C PREFETCH  ACCESS:    2166595  HIT:     262580  MISS:    1904015  HIT %:    12.1195  MISS %:    87.8805   MPKI: 9.52007
L2C DATA PREFETCH MPKI: 9.52007
L2C INSTRUCTION PREFETCH MPKI: 0
L2C WRITEBACK ACCESS:    1343358  HIT:    1341985  MISS:       1373  HIT %:    99.8978  MISS %:   0.102207   MPKI: 0.006865
L2C LOAD TRANSLATION ACCESS:      72918  HIT:      27043  MISS:      45875  HIT %:    37.0869  MISS %:    62.9131   MPKI: 0.229375
L2C PREFETCH  REQUESTED:    3284674  ISSUED:    3284672  USEFUL:    1216596  USELESS:     688279
L2C USEFUL LOAD PREFETCHES:    1216596 PREFETCH ISSUED TO LOWER LEVEL:    2939237  ACCURACY: 41.3916
L2C TIMELY PREFETCHES:    1216596 LATE PREFETCHES: 101552 DROPPED PREFETCHES: 0
L2C COMMIT LATE PREFETCHES: 0 MISSED OPPORTUNITY: 0 LATE IN PQ: 0 UNCOVERED: 0
L2C COMMIT LATE MSHR PREFETCHES: 0
L2C MPKI TOTAL: 34.5333 MSHR LATE: 0.50776 PQ LATE: 0 COMMIT LATE: 0 MISSED OPPORTUNITY: 0 UNCOVERED: 0
L2C PREFETCHES SAME FILL-ORIGIN LEVEL: 2005568 DIFFERENT FILL-ORIGIN LEVEL: 933669
L2C AVERAGE MISS LATENCY: 118.399 cycles
L2C AVERAGE MISS LATENCY LOAD: 102.099 cycles
L2C AVERAGE MISS LATENCY PREFETCH: 172.976 cycles
L2C AVERAGE MSHR OCCUPANCY: 2.32504
L2C MSHR FULL: 0
L2C RQ	ACCESS:   10917203	FORWARD:          0	MERGED:          0	TO_CACHE:   10917194
L2C WQ	ACCESS:    1343358	FORWARD:          9	MERGED:          0	TO_CACHE:    1343358
L2C PQ	ACCESS:    3284672	FORWARD:          0	MERGED:       8650	TO_CACHE:    3276022

L2C Instructions Evicting Data 0
L2C Translations Evicting Data 45608
L2C Data Evicting Data 8940299
L2C Instructions Evicting Instructions 0
L2C Translations Evicting Instructions 0
L2C Data Evicting Instructions 0
L2C Instructions Evicting Translations 0
L2C Translations Evicting Translations 267
L2C Data Evicting Translations 45582
L2C Dense regions hint from L2: 0
7ffd9c71bd75: 1
14aace283d67: 1
56546d1c2442: 1
56546d1c0710: 1
14aace2a7646: 1
14aace2a758f: 1
14aace283d3b: 1
56546d1c2539: 1
14aace2a75d0: 1
56546d1c25c5: 1
14aace2a75d4: 2
14aace2a7477: 2
14aace2a75c5: 2
14aace280913: 2
14aace28120e: 3
14aace284457: 3
14aace283c4f: 3
14aace283c61: 3
14aace283d7f: 4
14aace283c45: 4
14aace283c95: 4
14aace283a27: 4
14aace28445d: 5
14aace281252: 5
14aace2843a4: 6
14aace28124c: 6
14aace28444d: 7
14aace280f2b: 7
56546d1c24d3: 7
14aace28439a: 8
14aace28113f: 8
14aace28121e: 8
14aace2a764b: 8
14aace2a7641: 9
14aace2a7650: 9
14aace283c88: 9
14aace280795: 10
14aace28438c: 11
56546d1c232f: 11
14aace283ccc: 12
14aace283cf9: 12
14aace28115a: 12
14aace280f19: 15
14aace280e6c: 15
14aace283e41: 15
14aace28320e: 15
14aace2831f4: 16
14aace283207: 16
14aace28112d: 18
14aace281106: 19
14aace28431c: 19
14aace283c6b: 19
14aace280f46: 19
14aace283a12: 20
14aace2a7672: 20
14aace28062d: 23
14aace280e97: 24
14aace281135: 24
14aace280867: 24
14aace283d4d: 24
14aace280896: 25
14aace283d43: 26
14aace2a7686: 27
14aace2810ec: 27
14aace2a763e: 27
14aace280ebb: 28
14aace28398d: 39
14aace280c11: 41
14aace283cde: 43
14aace280eb2: 45
14aace28110a: 46
56546d1c2327: 46
14aace281174: 48
14aace283cd4: 51
14aace283cb6: 52
14aace2805a7: 54
14aace2810e6: 55
14aace2a76cb: 57
14aace2a76cf: 60
14aace2a76c7: 63
14aace280ef2: 73
14aace280c15: 73
14aace281123: 74
14aace2a76d3: 78
14aace280f10: 84
14aace280bf5: 94
14aace2810f0: 102
14aace2808f4: 130
14aace2804f8: 142
14aace28060d: 154
14aace280574: 169
14aace28065b: 173
14aace2808e8: 174
56546d1c0720: 177
14aace280f73: 177
14aace283978: 177
14aace28058f: 180
14aace2830e3: 182
14aace283961: 183
14aace283e55: 184
14aace2a76f6: 189
14aace2830cf: 193
14aace2830c1: 194
14aace280323: 195
14aacec1d3f0: 197
14aace283076: 197
14aace28307d: 202
56546d1c0580: 204
14aace2830af: 206
14aacec1cb30: 207
56546d1c05b0: 208
14aace280581: 215
14aace2805f4: 225
14aace2a76c4: 231
14aace283d1a: 236
56546d1c21e3: 249
14aace2a7682: 458
56546d1c21b8: 847
14aace2a767f: 1063
56546d1c21eb: 1607
56546d1c22dc: 1719
14aace2a768a: 2097
14aace2a770e: 9536
56546d1c21d5: 10397
14aace2a7703: 10444
14aace2a770a: 11184
14aace2a7706: 11287
56546d1c21e7: 12711
56546d1c22d8: 15066
56546d1c2200: 51853
56546d1c2226: 6758840
PSCL5 TOTAL     ACCESS:      60533  HIT:      60533  MISS:          0  HIT %:        100  MISS %:          0   MPKI: 0
PSCL5 Test counter:          0
PSCL5 LOAD TRANSLATION ACCESS:      60533  HIT:      60533  MISS:          0  HIT %:        100  MISS %:          0   MPKI: 0
PSCL5 PREFETCH  REQUESTED:          0  ISSUED:          0  USEFUL:          0  USELESS:          0
PSCL5 USEFUL LOAD PREFETCHES:          0 PREFETCH ISSUED TO LOWER LEVEL:          0  ACCURACY: -nan
PSCL5 TIMELY PREFETCHES:          0 LATE PREFETCHES: 0 DROPPED PREFETCHES: 0
PSCL5 COMMIT LATE PREFETCHES: 0 MISSED OPPORTUNITY: 0 LATE IN PQ: 0 UNCOVERED: 0
PSCL5 COMMIT LATE MSHR PREFETCHES: 0
PSCL5 MPKI TOTAL: 0 MSHR LATE: 0 PQ LATE: 0 COMMIT LATE: 0 MISSED OPPORTUNITY: 0 UNCOVERED: 0
PSCL5 PREFETCHES SAME FILL-ORIGIN LEVEL: 0 DIFFERENT FILL-ORIGIN LEVEL: 0

PSCL4 TOTAL     ACCESS:      60533  HIT:      60533  MISS:          0  HIT %:        100  MISS %:          0   MPKI: 0
PSCL4 Test counter:          0
PSCL4 LOAD TRANSLATION ACCESS:      60533  HIT:      60533  MISS:          0  HIT %:        100  MISS %:          0   MPKI: 0
PSCL4 PREFETCH  REQUESTED:          0  ISSUED:          0  USEFUL:          0  USELESS:          0
PSCL4 USEFUL LOAD PREFETCHES:          0 PREFETCH ISSUED TO LOWER LEVEL:          0  ACCURACY: -nan
PSCL4 TIMELY PREFETCHES:          0 LATE PREFETCHES: 0 DROPPED PREFETCHES: 0
PSCL4 COMMIT LATE PREFETCHES: 0 MISSED OPPORTUNITY: 0 LATE IN PQ: 0 UNCOVERED: 0
PSCL4 COMMIT LATE MSHR PREFETCHES: 0
PSCL4 MPKI TOTAL: 0 MSHR LATE: 0 PQ LATE: 0 COMMIT LATE: 0 MISSED OPPORTUNITY: 0 UNCOVERED: 0
PSCL4 PREFETCHES SAME FILL-ORIGIN LEVEL: 0 DIFFERENT FILL-ORIGIN LEVEL: 0

PSCL3 TOTAL     ACCESS:      60533  HIT:      60533  MISS:          0  HIT %:        100  MISS %:          0   MPKI: 0
PSCL3 Test counter:          0
PSCL3 LOAD TRANSLATION ACCESS:      60533  HIT:      60533  MISS:          0  HIT %:        100  MISS %:          0   MPKI: 0
PSCL3 PREFETCH  REQUESTED:          0  ISSUED:          0  USEFUL:          0  USELESS:          0
PSCL3 USEFUL LOAD PREFETCHES:          0 PREFETCH ISSUED TO LOWER LEVEL:          0  ACCURACY: -nan
PSCL3 TIMELY PREFETCHES:          0 LATE PREFETCHES: 0 DROPPED PREFETCHES: 0
PSCL3 COMMIT LATE PREFETCHES: 0 MISSED OPPORTUNITY: 0 LATE IN PQ: 0 UNCOVERED: 0
PSCL3 COMMIT LATE MSHR PREFETCHES: 0
PSCL3 MPKI TOTAL: 0 MSHR LATE: 0 PQ LATE: 0 COMMIT LATE: 0 MISSED OPPORTUNITY: 0 UNCOVERED: 0
PSCL3 PREFETCHES SAME FILL-ORIGIN LEVEL: 0 DIFFERENT FILL-ORIGIN LEVEL: 0

PSCL2 TOTAL     ACCESS:      60533  HIT:      48144  MISS:      12389  HIT %:    79.5335  MISS %:    20.4665   MPKI: 0.061945
PSCL2 Test counter:          0
PSCL2 LOAD TRANSLATION ACCESS:      60533  HIT:      48144  MISS:      12389  HIT %:    79.5335  MISS %:    20.4665   MPKI: 0.061945
PSCL2 PREFETCH  REQUESTED:          0  ISSUED:          0  USEFUL:          0  USELESS:          0
PSCL2 USEFUL LOAD PREFETCHES:          0 PREFETCH ISSUED TO LOWER LEVEL:          0  ACCURACY: -nan
PSCL2 TIMELY PREFETCHES:          0 LATE PREFETCHES: 0 DROPPED PREFETCHES: 0
PSCL2 COMMIT LATE PREFETCHES: 0 MISSED OPPORTUNITY: 0 LATE IN PQ: 0 UNCOVERED: 0
PSCL2 COMMIT LATE MSHR PREFETCHES: 0
PSCL2 MPKI TOTAL: 0 MSHR LATE: 0 PQ LATE: 0 COMMIT LATE: 0 MISSED OPPORTUNITY: 0 UNCOVERED: 0
PSCL2 PREFETCHES SAME FILL-ORIGIN LEVEL: 0 DIFFERENT FILL-ORIGIN LEVEL: 0

LLC TOTAL     ACCESS:   10776365  HIT:    5118812  MISS:    5657553  HIT %:    47.5004  MISS %:    52.4996   MPKI: 28.2878
LLC Test counter:          0
LLC LOAD      ACCESS:    6805106  HIT:    3636983  MISS:    3168124  HIT %:    53.4449  MISS %:    46.5551   MPKI: 15.8406
LLC RFO       ACCESS:     175208  HIT:      68593  MISS:     106615  HIT %:    39.1495  MISS %:    60.8505   MPKI: 0.533075
LLC PREFETCH  ACCESS:    2915396  HIT:     575731  MISS:    2339665  HIT %:     19.748  MISS %:     80.252   MPKI: 11.6983
LLC WRITEBACK ACCESS:     834780  HIT:     826633  MISS:       8147  HIT %:    99.0241  MISS %:   0.975946   MPKI: 0.040735
LLC LOAD TRANSLATION ACCESS:      45875  HIT:      10872  MISS:      35003  HIT %:    23.6992  MISS %:    76.3008   MPKI: 0.175015
LLC PREFETCH  REQUESTED:          0  ISSUED:          0  USEFUL:     243474  USELESS:    2098361
LLC USEFUL LOAD PREFETCHES:     243474 PREFETCH ISSUED TO LOWER LEVEL:    2355653  ACCURACY: 10.3357
LLC TIMELY PREFETCHES:     243474 LATE PREFETCHES: 15987 DROPPED PREFETCHES: 0
LLC COMMIT LATE PREFETCHES: 0 MISSED OPPORTUNITY: 0 LATE IN PQ: 0 UNCOVERED: 0
LLC COMMIT LATE MSHR PREFETCHES: 0
LLC MPKI TOTAL: 15.8406 MSHR LATE: 0.079935 PQ LATE: 0 COMMIT LATE: 0 MISSED OPPORTUNITY: 0 UNCOVERED: 0
LLC PREFETCHES SAME FILL-ORIGIN LEVEL: 586267 DIFFERENT FILL-ORIGIN LEVEL: 0
LLC AVERAGE MISS LATENCY: 157.172 cycles
LLC AVERAGE MISS LATENCY LOAD: 153.527 cycles
LLC AVERAGE MISS LATENCY PREFETCH: 160.08 cycles
LLC AVERAGE MSHR OCCUPANCY: 1.94816
LLC MSHR FULL: 0
LLC RQ	ACCESS:    7026191	FORWARD:          0	MERGED:          0	TO_CACHE:    7026191
LLC WQ	ACCESS:     834780	FORWARD:          0	MERGED:          0	TO_CACHE:     834780
LLC PQ	ACCESS:    2939237	FORWARD:          0	MERGED:       4813	TO_CACHE:    2934424

LLC Dense regions hint to LLC: 0
14aace280913: 1
56546d1c2442: 1
14aace283a27: 1
14aace283d67: 1
14aace283d3b: 1
14aace2a7646: 1
14aace2a758f: 1
7ffd9c71bd75: 1
56546d1c25c5: 1
14aace283c95: 1
14aace2a75d4: 1
14aace2a75d0: 1
14aace283c88: 2
14aace2a75c5: 2
14aace2a7477: 2
14aace283d7f: 2
56546d1c24d3: 2
14aace2843a4: 2
14aace283c4f: 2
14aace283c45: 2
14aace2a7641: 2
14aace281252: 2
14aace284457: 3
14aace28120e: 3
14aace28445d: 3
56546d1c232f: 4
14aace28124c: 6
14aace28444d: 6
14aace280795: 6
14aace28121e: 6
14aace280f2b: 6
14aace28438c: 7
14aace2a7650: 7
14aace2a764b: 8
14aace28113f: 8
14aace28439a: 8
14aace283ccc: 9
14aace280e6c: 9
14aace280867: 10
14aace28115a: 10
14aace280896: 11
14aace283cf9: 11
14aace2a7672: 12
14aace28320e: 13
14aace283e41: 14
14aace280f19: 15
14aace281106: 15
14aace2831f4: 15
14aace2a7686: 16
14aace28398d: 16
14aace28112d: 16
14aace283207: 16
14aace280f46: 17
14aace2a76d3: 18
14aace28431c: 19
14aace283c6b: 19
14aace283a12: 19
14aace280e97: 20
14aace283d4d: 20
14aace283d43: 20
14aace280ebb: 21
14aace281135: 21
14aace2805a7: 21
14aace28062d: 21
14aace2810ec: 22
14aace2a763e: 27
14aace280c11: 28
14aace280eb2: 33
14aace28110a: 35
14aace283cde: 36
56546d1c2327: 39
14aace2810e6: 43
14aace283cd4: 43
14aace281174: 44
14aace283cb6: 45
14aace280574: 55
14aace280c15: 57
14aace2a76cb: 57
14aace2a76cf: 59
14aace2a76c7: 62
56546d1c0720: 65
14aace280ef2: 68
14aace281123: 69
14aace280bf5: 72
14aace280f10: 72
14aace283978: 75
14aace2830c1: 75
56546d1c0580: 76
14aace2830cf: 76
14aace2804f8: 76
14aace28307d: 77
14aace2810f0: 80
14aace283076: 80
14aace2830af: 80
14aace280f73: 81
14aacec1d3f0: 82
14aace2830e3: 83
14aace283961: 83
14aace28065b: 84
14aace280323: 85
14aace28058f: 86
14aacec1cb30: 88
14aace283e55: 88
56546d1c05b0: 88
14aace280581: 90
14aace2808f4: 96
14aace2a76f6: 100
56546d1c21e3: 112
14aace2808e8: 114
56546d1c22dc: 130
14aace28060d: 132
14aace2805f4: 142
14aace2a7682: 154
14aace2a76c4: 226
14aace283d1a: 227
14aace2a767f: 337
14aace2a768a: 359
56546d1c21b8: 380
56546d1c22d8: 823
56546d1c21eb: 1606
14aace2a770e: 2368
14aace2a7703: 2671
14aace2a770a: 2711
14aace2a7706: 3098
56546d1c21d5: 5212
56546d1c21e7: 12705
56546d1c2200: 49384
56546d1c2226: 3081815

RAW hits: 69380
Loads Generated: 76805712
Loads sent to L1D: 76736332
Stores Generated: 2216772
Stores sent to L1D: 2216772
Major fault: 0 Minor fault: 37080
Allocated PAGES: 37080
Total Load insts: 93561421
Total Non-spec loads: 6435510
Percentage of speculative loads: 93.1216
L1D response latency: 83.0918 cycles
Load retirement latency: 171.316 cycles

------------------
Depth Distribution
------------------
depth 0: 8634461
depth 1: 2239675
depth 2: 306181
depth 3: 346868
depth 4: 451614
depth 5: 370391
depth 6: 70177
depth 7: 14010
depth 8: 4608
depth 9: 3024
depth 10: 429
depth 11: 1853
depth 12: 1101
depth 13: 267
depth 14: 665
depth 15: 1
depth 16: 0
depth 17: 0
depth 18: 0
depth 19: 0
depth 20: 0
depth 21: 0
depth 22: 0
depth 23: 0
depth 24: 0
depth 25: 0
depth 26: 0
depth 27: 0
depth 28: 0
depth 29: 0
Total: 12445325
------------------
ST read accesses: 6477496
ST write accesses: 3897363
PT read accesses: 103672962
PT write accesses: 7493830
FILTER read accesses: 40691751
FILTER write accesses: 27311455
GHR read accesses: 33950706
GHR write accesses: 364319
PERC read accesses: 629424936
PERC write accesses: 31489410
GHR counter read accesses: 20749718
GHR counter write accesses: 14581453
GHR ip read accesses: 53623449
GHR ip write accesses: 41499436
ST tag read accesses: 5982325369
ST tag write accesses: 1041037919

DRAM Statistics
 CHANNEL 0
 RQ ROW_BUFFER_HIT:    1793868  ROW_BUFFER_MISS:    3855491
 DBUS_CONGESTED:       5255
 WQ ROW_BUFFER_HIT:     213656  ROW_BUFFER_MISS:     509471  FULL:          0

 AVG_CONGESTED_CYCLE: 4
 All warmup complete: 2
Channel 0 Bank busy for read cycles: 0
Channel 0 Bank busy for write cycles: 0
Channel 0
Rank 0
0banks busy for read cycles: 98056079
0banks busy for write cycles: 316169
1banks busy for read cycles: 152555114
1banks busy for write cycles: 52893478
2banks busy for read cycles: 91572662
2banks busy for write cycles: 23383309
3banks busy for read cycles: 51042393
3banks busy for write cycles: 9722383
4banks busy for read cycles: 23602307
4banks busy for write cycles: 4022460
5banks busy for read cycles: 9308060
5banks busy for write cycles: 1742651
6banks busy for read cycles: 3183807
6banks busy for write cycles: 802118
7banks busy for read cycles: 1185889
7banks busy for write cycles: 438303
8banks busy for read cycles: 1394330
8banks busy for write cycles: 446198

CPU 0 Branch Prediction Accuracy: 97.7909% MPKI: 3.2859 Average ROB Occupancy at Mispredict: 167.276
Branch types
NOT_BRANCH: 170250761 85.1254%
BRANCH_DIRECT_JUMP: 9225403 4.6127%
BRANCH_INDIRECT: 0 0%
BRANCH_CONDITIONAL: 20520883 10.2604%
BRANCH_DIRECT_CALL: 1314 0.000657%
BRANCH_INDIRECT_CALL: 0 0%
BRANCH_RETURN: 1314 0.000657%
BRANCH_OTHER: 0 0%

DRAM PAGES: 1048576
Allocated PAGES: 37080
