Initialize SIGNATURE TABLE
ST_SET: 1
ST_WAY: 256
ST_TAG_BIT: 16
ST_TAG_MASK: ffff

Initialize PATTERN TABLE
PT_SET: 512
PT_WAY: 4
SIG_DELTA_BIT: 7
C_SIG_BIT: 4
C_DELTA_BIT: 4

Initialize PREFETCH FILTER
FILTER_SET: 1024

Initialize PERCEPTRON
PERC_ENTRIES: 4096
PERC_FEATURES: 9

*** ChampSim Multicore Out-of-Order Simulator ***

Warmup Instructions: 50000000
Simulation Instructions: 200000000
Number of CPUs: 1
LLC sets: 2048
LLC ways: 16
Secure Berti: OFF
Berti: OFF
Berti Fill: OFF
On commit prefetching: OFF
L2 LLC Bypass speculative loads: OFF
Off-chip DRAM Size: 4096 MB Channels: 1 Width: 64-bit Data Rate: 6400 MT/s
CPU 0 runs /home/sumon/secure_berti/Berti_Baseline/../../traces/gap/sssp-3.trace.gz
.gz
BTB has LRU replacement policy
ITLB has LRU replacement policy
DTLB has LRU replacement policy
STLB has LRU replacement policy
L1I has LRU replacement policy
L1D has LRU replacement policy
PERC_ENTRIES: 4096
L2C has LRU replacement policy
LLC has LRU replacement policy
Heartbeat CPU 0 instructions: 10000002 cycles: 3093407 heartbeat IPC: 3.23268 cumulative IPC: 3.23268 (Simulation time: 0 hr 0 min 30 sec) 
Heartbeat CPU 0 instructions: 20000001 cycles: 6158017 heartbeat IPC: 3.26306 cumulative IPC: 3.2478 (Simulation time: 0 hr 0 min 58 sec) 
Heartbeat CPU 0 instructions: 30000002 cycles: 9247080 heartbeat IPC: 3.23723 cumulative IPC: 3.24427 (Simulation time: 0 hr 1 min 19 sec) 
Heartbeat CPU 0 instructions: 40000001 cycles: 12334265 heartbeat IPC: 3.2392 cumulative IPC: 3.243 (Simulation time: 0 hr 1 min 41 sec) 
Heartbeat CPU 0 instructions: 50000000 cycles: 15429936 heartbeat IPC: 3.23032 cumulative IPC: 3.24045 (Simulation time: 0 hr 2 min 9 sec) 

Warmup complete CPU 0 instructions: 50000004 cycles: 15429937 (Simulation time: 0 hr 2 min 9 sec) 

Heartbeat CPU 0 instructions: 60000001 cycles: 45572736 heartbeat IPC: 0.331754 cumulative IPC: 0.331754 (Simulation time: 0 hr 2 min 40 sec) 
Heartbeat CPU 0 instructions: 70000000 cycles: 74645951 heartbeat IPC: 0.343959 cumulative IPC: 0.337746 (Simulation time: 0 hr 3 min 11 sec) 
Heartbeat CPU 0 instructions: 80000000 cycles: 102970170 heartbeat IPC: 0.353055 cumulative IPC: 0.3427 (Simulation time: 0 hr 3 min 42 sec) 
Heartbeat CPU 0 instructions: 90000002 cycles: 130985548 heartbeat IPC: 0.356947 cumulative IPC: 0.346154 (Simulation time: 0 hr 4 min 14 sec) 
Heartbeat CPU 0 instructions: 100000000 cycles: 158100983 heartbeat IPC: 0.368794 cumulative IPC: 0.350457 (Simulation time: 0 hr 4 min 46 sec) 
Heartbeat CPU 0 instructions: 110000000 cycles: 185192899 heartbeat IPC: 0.369114 cumulative IPC: 0.353434 (Simulation time: 0 hr 5 min 18 sec) 
Heartbeat CPU 0 instructions: 120000000 cycles: 211767157 heartbeat IPC: 0.376304 cumulative IPC: 0.356529 (Simulation time: 0 hr 5 min 51 sec) 
Heartbeat CPU 0 instructions: 130000002 cycles: 238037405 heartbeat IPC: 0.380659 cumulative IPC: 0.359377 (Simulation time: 0 hr 6 min 24 sec) 
Heartbeat CPU 0 instructions: 140000000 cycles: 264030083 heartbeat IPC: 0.384724 cumulative IPC: 0.362027 (Simulation time: 0 hr 6 min 57 sec) 
Heartbeat CPU 0 instructions: 150000000 cycles: 289550016 heartbeat IPC: 0.391851 cumulative IPC: 0.364804 (Simulation time: 0 hr 7 min 30 sec) 
Heartbeat CPU 0 instructions: 160000001 cycles: 315012207 heartbeat IPC: 0.392739 cumulative IPC: 0.367178 (Simulation time: 0 hr 8 min 3 sec) 
Heartbeat CPU 0 instructions: 170000003 cycles: 340456347 heartbeat IPC: 0.393018 cumulative IPC: 0.369201 (Simulation time: 0 hr 8 min 35 sec) 
Heartbeat CPU 0 instructions: 180000003 cycles: 365480237 heartbeat IPC: 0.399618 cumulative IPC: 0.371375 (Simulation time: 0 hr 9 min 7 sec) 
Heartbeat CPU 0 instructions: 190000001 cycles: 390680914 heartbeat IPC: 0.396815 cumulative IPC: 0.373084 (Simulation time: 0 hr 9 min 39 sec) 
Heartbeat CPU 0 instructions: 200000002 cycles: 415611859 heartbeat IPC: 0.401108 cumulative IPC: 0.37483 (Simulation time: 0 hr 10 min 12 sec) 
Heartbeat CPU 0 instructions: 210000003 cycles: 440392441 heartbeat IPC: 0.403542 cumulative IPC: 0.376504 (Simulation time: 0 hr 10 min 44 sec) 
Heartbeat CPU 0 instructions: 220000000 cycles: 465100378 heartbeat IPC: 0.404728 cumulative IPC: 0.378055 (Simulation time: 0 hr 11 min 16 sec) 
Heartbeat CPU 0 instructions: 230000002 cycles: 489613439 heartbeat IPC: 0.407946 cumulative IPC: 0.3796 (Simulation time: 0 hr 11 min 48 sec) 
Heartbeat CPU 0 instructions: 240000000 cycles: 514548563 heartbeat IPC: 0.401041 cumulative IPC: 0.380671 (Simulation time: 0 hr 12 min 21 sec) 
Heartbeat CPU 0 instructions: 250000002 cycles: 539438784 heartbeat IPC: 0.401764 cumulative IPC: 0.381673 (Simulation time: 0 hr 12 min 54 sec) 
Finished CPU 0 instructions: 200000002 cycles: 524008848 cumulative IPC: 0.381673 (Simulation time: 0 hr 12 min 54 sec) 

ChampSim completed all CPUs

Region of Interest Statistics

CPU 0 cumulative IPC: 0.381673 instructions: 200000002 cycles: 524008848
ITLB TOTAL     ACCESS:   24434608  HIT:   24434608  MISS:          0  HIT %:        100  MISS %:          0   MPKI: 0
ITLB Test counter:          0
ITLB LOAD TRANSLATION ACCESS:   24434608  HIT:   24434608  MISS:          0  HIT %:        100  MISS %:          0   MPKI: 0
ITLB PREFETCH  REQUESTED:          0  ISSUED:          0  USEFUL:          0  USELESS:          0
ITLB USEFUL LOAD PREFETCHES:          0 PREFETCH ISSUED TO LOWER LEVEL:          0  ACCURACY: -nan
ITLB TIMELY PREFETCHES:          0 LATE PREFETCHES: 0 DROPPED PREFETCHES: 0
ITLB COMMIT LATE PREFETCHES: 0 MISSED OPPORTUNITY: 0 LATE IN PQ: 0 UNCOVERED: 0
ITLB COMMIT LATE MSHR PREFETCHES: 0
ITLB MPKI TOTAL: 0 MSHR LATE: 0 PQ LATE: 0 COMMIT LATE: 0 MISSED OPPORTUNITY: 0 UNCOVERED: 0
ITLB PREFETCHES SAME FILL-ORIGIN LEVEL: 0 DIFFERENT FILL-ORIGIN LEVEL: 0
ITLB AVERAGE MISS LATENCY: -nan cycles
ITLB AVERAGE MISS LATENCY LOAD: -nan cycles
ITLB AVERAGE MISS LATENCY PREFETCH: -nan cycles
ITLB AVERAGE MSHR OCCUPANCY: 0
ITLB MSHR FULL: 0
ITLB RQ	ACCESS:   25097934	FORWARD:          0	MERGED:     663327	TO_CACHE:   24434607

DTLB TOTAL     ACCESS:   43561834  HIT:   39017591  MISS:    4544243  HIT %:    89.5683  MISS %:    10.4317   MPKI: 22.7212
DTLB Test counter:          0
DTLB LOAD TRANSLATION ACCESS:   43561834  HIT:   39017591  MISS:    4544243  HIT %:    89.5683  MISS %:    10.4317   MPKI: 22.7212
DTLB PREFETCH  REQUESTED:          0  ISSUED:          0  USEFUL:          0  USELESS:          0
DTLB USEFUL LOAD PREFETCHES:          0 PREFETCH ISSUED TO LOWER LEVEL:          0  ACCURACY: -nan
DTLB TIMELY PREFETCHES:          0 LATE PREFETCHES: 0 DROPPED PREFETCHES: 0
DTLB COMMIT LATE PREFETCHES: 0 MISSED OPPORTUNITY: 0 LATE IN PQ: 0 UNCOVERED: 0
DTLB COMMIT LATE MSHR PREFETCHES: 0
DTLB MPKI TOTAL: 0 MSHR LATE: 0 PQ LATE: 0 COMMIT LATE: 0 MISSED OPPORTUNITY: 0 UNCOVERED: 0
DTLB PREFETCHES SAME FILL-ORIGIN LEVEL: 0 DIFFERENT FILL-ORIGIN LEVEL: 0
DTLB AVERAGE MISS LATENCY: 11.6925 cycles
DTLB AVERAGE MISS LATENCY LOAD: -nan cycles
DTLB AVERAGE MISS LATENCY PREFETCH: -nan cycles
DTLB AVERAGE MSHR OCCUPANCY: 0.183368
DTLB MSHR FULL: 9.14704e-08
DTLB RQ	ACCESS:   49720253	FORWARD:          0	MERGED:    5990259	TO_CACHE:   43729994

STLB TOTAL     ACCESS:    4544244  HIT:    4486697  MISS:      57547  HIT %:    98.7336  MISS %:    1.26637   MPKI: 0.287735
STLB Test counter:          0
STLB LOAD TRANSLATION ACCESS:    4544244  HIT:    4486697  MISS:      57547  HIT %:    98.7336  MISS %:    1.26637   MPKI: 0.287735
STLB PREFETCH  REQUESTED:          0  ISSUED:          0  USEFUL:          0  USELESS:          0
STLB USEFUL LOAD PREFETCHES:          0 PREFETCH ISSUED TO LOWER LEVEL:          0  ACCURACY: -nan
STLB TIMELY PREFETCHES:          0 LATE PREFETCHES: 0 DROPPED PREFETCHES: 0
STLB COMMIT LATE PREFETCHES: 0 MISSED OPPORTUNITY: 0 LATE IN PQ: 0 UNCOVERED: 0
STLB COMMIT LATE MSHR PREFETCHES: 0
STLB MPKI TOTAL: 0 MSHR LATE: 0 PQ LATE: 0 COMMIT LATE: 0 MISSED OPPORTUNITY: 0 UNCOVERED: 0
STLB PREFETCHES SAME FILL-ORIGIN LEVEL: 0 DIFFERENT FILL-ORIGIN LEVEL: 0
STLB AVERAGE MISS LATENCY: 192.746 cycles
STLB AVERAGE MISS LATENCY LOAD: -nan cycles
STLB AVERAGE MISS LATENCY PREFETCH: -nan cycles
STLB AVERAGE MSHR OCCUPANCY: 0.00537053
STLB MSHR FULL: 0
STLB RQ	ACCESS:    4544245	FORWARD:          0	MERGED:          0	TO_CACHE:    4544245

STLB Hit, L1D data hit: 0
STLB Hit, L2C data hit: 0
STLB Hit, LLC data hit: 0
STLB Hit, LLC data miss: 0
STLB STLB hints to L2: 0
L1D TOTAL     ACCESS:   49060239  HIT:   38218973  MISS:   10841266  HIT %:    77.9021  MISS %:    22.0979   MPKI: 54.2063
L1D Test counter:          0
L1D LOAD      ACCESS:   47030716  HIT:   36655699  MISS:   10860329  HIT %:    77.9399  MISS %:    22.0601   MPKI: 51.8751
L1D RFO       ACCESS:    2029523  HIT:    1563274  MISS:     466249  HIT %:    77.0267  MISS %:    22.9733   MPKI: 2.33124
L1D PREFETCH  REQUESTED:          0  ISSUED:          0  USEFUL:          0  USELESS:          0
L1D USEFUL LOAD PREFETCHES:          0 PREFETCH ISSUED TO LOWER LEVEL:          0  ACCURACY: -nan
L1D TIMELY PREFETCHES:          0 LATE PREFETCHES: 0 DROPPED PREFETCHES: 0
L1D COMMIT LATE PREFETCHES: 0 MISSED OPPORTUNITY: 0 LATE IN PQ: 0 UNCOVERED: 0
L1D COMMIT LATE MSHR PREFETCHES: 0
L1D MPKI TOTAL: 54.3016 MSHR LATE: 0 PQ LATE: 0 COMMIT LATE: 0 MISSED OPPORTUNITY: 0 UNCOVERED: 0
L1D PREFETCHES SAME FILL-ORIGIN LEVEL: 0 DIFFERENT FILL-ORIGIN LEVEL: 0
L1D AVERAGE MISS LATENCY: 82.3759 cycles
L1D AVERAGE MISS LATENCY LOAD: 82.8231 cycles
L1D AVERAGE MISS LATENCY PREFETCH: -nan cycles
L1D AVERAGE MSHR OCCUPANCY: 1.68881
L1D MSHR FULL: 0.0222451
L1D RQ	ACCESS:   76739952	FORWARD:          0	MERGED:   29219500	TO_CACHE:   47516029
L1D WQ	ACCESS:    2204915	FORWARD:       4423	MERGED:        691	TO_CACHE:    2204224

L1D UNIQUE REGIONS ACCESSED: 0
L1D REGIONS CONFLICTS: 0
L1D Cross Page Prefetch Requests: 0
L1D Same Page Prefetch Requests: 0
L1D ROI Sum of L1D PQ occupancy: 0
L1D PREFETCHES PUSHED FROM L2C: 0
559889cb11c5: 1
559889cb14af: 1
14e493a62a7c: 1
14e493a5b9fc: 1
14e493a62a4b: 1
14e493a62a82: 1
559889cb1485: 1
14e493a5b9a5: 1
14e493a5ba06: 1
14e493a5b965: 1
14e493a5b9de: 1
559889cb15c5: 1
14e493a865d4: 1
559889caf710: 1
14e493a5b99b: 1
14e493a62a58: 1
14e493a8657e: 1
14e493a5b9f4: 1
14e493a5b93c: 1
14e493a8658f: 1
14e493a5ba25: 1
14e493a5b97e: 1
559889cb11de: 1
559889cb148c: 1
7ffeb778ad75: 1
14e493a86477: 2
14e493a866c3: 2
14e493a865c8: 3
559889cb132a: 3
14e493a63457: 3
14e493a865c5: 3
14e493a6345d: 3
14e493a5f913: 3
14e493a60252: 4
14e493a6339a: 4
14e493a5ff2b: 4
14e493a62d67: 5
559889cb1568: 5
14e493a6024c: 6
14e493a633a4: 7
14e493a86650: 7
14e493a6344d: 7
14e493a86646: 9
14e493a62ccc: 9
14e493a6338c: 9
14e493a62d3b: 10
14e493a60135: 11
14e493a8664b: 12
14e493a62e41: 14
14e493a6021e: 14
14e493a5f795: 15
14e493a62cf9: 15
14e493a6015a: 16
14e493a6013f: 17
14e493a5fe6c: 17
14e493a60106: 17
559889cb1585: 17
14e493a6012d: 18
14e493a5f62d: 18
14e493a5ff19: 19
559889cb14d3: 19
14e493a5ff46: 19
14e493a600ec: 20
14e493a62207: 20
14e493a6220e: 20
14e493a621f4: 20
14e493a6331c: 21
14e493a62a12: 23
14e493a5feb2: 24
559889cb1317: 26
14e493a86641: 27
14e493a5febb: 28
14e493a8663e: 30
14e493a5f896: 30
14e493a5f867: 31
14e493a86672: 32
14e493a62d4d: 34
14e493a62cde: 36
14e493a62d43: 36
14e493a6010a: 38
14e493a5fe97: 41
14e493a5fc11: 43
14e493a62cd4: 44
14e493a8674a: 45
14e493a62d7f: 45
559889cb1539: 46
14e493a6299f: 46
559889cb1327: 46
14e493a62a09: 46
14e493a62971: 46
559889cb132f: 46
14e493a629a6: 46
14e493a62cb6: 47
14e493a60174: 50
14e493a62c61: 52
14e493a62c95: 52
14e493a62c4f: 52
14e493a62c45: 52
14e493a62a27: 53
14e493a62c88: 54
14e493a866c7: 54
14e493a866cb: 55
14e493a866cf: 57
14e493a5f5a7: 61
14e493a600e6: 63
14e493a5fc15: 67
14e493a5fef2: 72
14e493a60123: 75
14e493a5ff10: 86
14e493a6298d: 93
14e493a62c6b: 95
14e493a600f0: 109
14e493a5fbf5: 121
14e493a5f8f4: 137
14e493a8668a: 154
14e493a5f60d: 166
14e493a866d3: 178
14e493a5f8e8: 182
14e493a5f65b: 200
14e493a5ff73: 205
14e493a866f6: 219
14e493a866c4: 222
14e493a5f58f: 229
14e493a5f574: 232
14e493a5f323: 232
14e493a620e3: 233
14e493a62d1a: 234
14e493a5f4f8: 236
14e493a62e55: 239
14e493a5f5f4: 246
14e493a620c1: 252
14e493a620cf: 254
14e493a620af: 255
14e493a62978: 256
14e493a62961: 257
559889caf580: 257
559889caf720: 257
14e4943fc3f0: 258
14e493a62076: 258
14e493a6207d: 260
14e4943fbb30: 260
559889caf5b0: 260
14e493a5f581: 267
14e493a8667f: 474
14e493a86686: 1230
559889cb11eb: 1532
14e493a86682: 2936
559889cb11e3: 3345
559889cb11b8: 3818
559889cb11d5: 11776
559889cb11e7: 11852
14e493a86706: 12332
14e493a8670e: 12542
14e493a8670a: 13253
14e493a86703: 14730
559889cb12dc: 28280
559889cb12d8: 220769
559889cb1200: 1164961
559889cb1226: 8861445
L1I TOTAL     ACCESS:   25097934  HIT:   25097934  MISS:          0  HIT %:        100  MISS %:          0   MPKI: 0
L1I Test counter:          0
L1I LOAD      ACCESS:   25097934  HIT:   25097934  MISS:          0  HIT %:        100  MISS %:          0   MPKI: 0
L1I PREFETCH  REQUESTED:          0  ISSUED:          0  USEFUL:          0  USELESS:          0
L1I USEFUL LOAD PREFETCHES:          0 PREFETCH ISSUED TO LOWER LEVEL:          0  ACCURACY: -nan
L1I TIMELY PREFETCHES:          0 LATE PREFETCHES: 0 DROPPED PREFETCHES: 0
L1I COMMIT LATE PREFETCHES: 0 MISSED OPPORTUNITY: 0 LATE IN PQ: 0 UNCOVERED: 0
L1I COMMIT LATE MSHR PREFETCHES: 0
L1I MPKI TOTAL: 0 MSHR LATE: 0 PQ LATE: 0 COMMIT LATE: 0 MISSED OPPORTUNITY: 0 UNCOVERED: 0
L1I PREFETCHES SAME FILL-ORIGIN LEVEL: 0 DIFFERENT FILL-ORIGIN LEVEL: 0
L1I AVERAGE MISS LATENCY: -nan cycles
L1I AVERAGE MISS LATENCY LOAD: -nan cycles
L1I AVERAGE MISS LATENCY PREFETCH: -nan cycles
L1I AVERAGE MSHR OCCUPANCY: 0
L1I MSHR FULL: 0
L1I RQ	ACCESS:   38902555	FORWARD:          0	MERGED:   13804621	TO_CACHE:   25097934

BTB TOTAL     ACCESS:   29073098  HIT:   29072935  MISS:        163  HIT %:    99.9994  MISS %: 0.000560656   MPKI: 0.000815
BTB Test counter:          0
BTB BRANCH_DIRECT_JUMP	ACCESS:    9228470  HIT:    9228426  MISS:         44
BTB BRANCH_INDIRECT	ACCESS:          0  HIT:          0  MISS:          0
BTB BRANCH_CONDITIONAL	ACCESS:   19842030  HIT:   19841939  MISS:         91
BTB BRANCH_DIRECT_CALL	ACCESS:       1299  HIT:       1288  MISS:         11
BTB BRANCH_INDIRECT_CALL	ACCESS:          0  HIT:          0  MISS:          0
BTB BRANCH_RETURN	ACCESS:       1299  HIT:       1282  MISS:         17
BTB BRANCH_OTHER ACCESS:          0  HIT:          0  MISS:          0

L2C TOTAL     ACCESS:   14190416  HIT:    5288710  MISS:    8901706  HIT %:    37.2696  MISS %:    62.7304   MPKI: 44.5085
L2C Test counter:          0
L2C LOAD      ACCESS:   10375015  HIT:    3416343  MISS:    6958673  HIT %:    32.9286  MISS %:    67.0714   MPKI: 34.7934
L2C DATA LOAD MPKI: 34.7934
L2C INSTRUCTION LOAD MPKI: 0
L2C RFO       ACCESS:     466227  HIT:     294120  MISS:     172107  HIT %:    63.0851  MISS %:    36.9149   MPKI: 0.860535
L2C PREFETCH  ACCESS:    1940024  HIT:     214411  MISS:    1725613  HIT %:     11.052  MISS %:     88.948   MPKI: 8.62806
L2C DATA PREFETCH MPKI: 8.62806
L2C INSTRUCTION PREFETCH MPKI: 0
L2C WRITEBACK ACCESS:    1339774  HIT:    1338299  MISS:       1475  HIT %:    99.8899  MISS %:   0.110093   MPKI: 0.007375
L2C LOAD TRANSLATION ACCESS:      69376  HIT:      25537  MISS:      43839  HIT %:    36.8096  MISS %:    63.1904   MPKI: 0.219195
L2C PREFETCH  REQUESTED:    2843733  ISSUED:    2843733  USEFUL:    1186929  USELESS:     538893
L2C USEFUL LOAD PREFETCHES:    1186929 PREFETCH ISSUED TO LOWER LEVEL:    2562019  ACCURACY: 46.3279
L2C TIMELY PREFETCHES:    1186929 LATE PREFETCHES: 66094 DROPPED PREFETCHES: 0
L2C COMMIT LATE PREFETCHES: 0 MISSED OPPORTUNITY: 0 LATE IN PQ: 0 UNCOVERED: 0
L2C COMMIT LATE MSHR PREFETCHES: 0
L2C MPKI TOTAL: 34.7934 MSHR LATE: 0.33047 PQ LATE: 0 COMMIT LATE: 0 MISSED OPPORTUNITY: 0 UNCOVERED: 0
L2C PREFETCHES SAME FILL-ORIGIN LEVEL: 1791708 DIFFERENT FILL-ORIGIN LEVEL: 770311
L2C AVERAGE MISS LATENCY: 116.934 cycles
L2C AVERAGE MISS LATENCY LOAD: 100.858 cycles
L2C AVERAGE MISS LATENCY PREFETCH: 176.877 cycles
L2C AVERAGE MSHR OCCUPANCY: 2.26931
L2C MSHR FULL: 0
L2C RQ	ACCESS:   10910644	FORWARD:          0	MERGED:          0	TO_CACHE:   10910620
L2C WQ	ACCESS:    1339774	FORWARD:         24	MERGED:          0	TO_CACHE:    1339774
L2C PQ	ACCESS:    2843733	FORWARD:          0	MERGED:       7538	TO_CACHE:    2836195

L2C Instructions Evicting Data 0
L2C Translations Evicting Data 43632
L2C Data Evicting Data 8812837
L2C Instructions Evicting Instructions 0
L2C Translations Evicting Instructions 0
L2C Data Evicting Instructions 0
L2C Instructions Evicting Translations 0
L2C Translations Evicting Translations 207
L2C Data Evicting Translations 43555
L2C Dense regions hint from L2: 0
14e493a5b965: 1
14e493a62a82: 1
14e493a62a7c: 1
559889cb11c5: 1
14e493a8657e: 1
14e493a5b9fc: 1
14e493a5ba06: 1
14e493a5b9de: 1
14e493a5b99b: 1
559889cb1539: 1
559889cb15c5: 1
559889caf710: 1
14e493a62a58: 1
14e493a865d4: 1
7ffeb778ad75: 1
14e493a5b93c: 1
14e493a5b9a5: 1
14e493a86477: 1
14e493a8658f: 1
14e493a5b97e: 1
14e493a865c5: 3
14e493a5ff2b: 3
14e493a6345d: 3
14e493a5f913: 3
14e493a63457: 3
14e493a865c8: 3
14e493a62d67: 3
14e493a62d3b: 4
14e493a6339a: 4
14e493a60252: 4
14e493a62c45: 4
14e493a6024c: 5
14e493a62a27: 5
14e493a62c61: 5
14e493a62c4f: 5
14e493a62c95: 5
14e493a62d7f: 7
14e493a86650: 7
14e493a633a4: 7
14e493a6344d: 7
559889cb132f: 7
14e493a62c88: 8
14e493a62ccc: 8
14e493a6338c: 8
14e493a86646: 8
559889cb14d3: 9
14e493a60135: 9
14e493a86641: 10
14e493a8664b: 11
14e493a62e41: 12
14e493a6021e: 12
14e493a6015a: 12
14e493a5f795: 13
14e493a62cf9: 15
14e493a5fe6c: 15
14e493a60106: 15
14e493a5f62d: 16
14e493a6013f: 16
14e493a6012d: 16
14e493a600ec: 18
14e493a5ff46: 18
14e493a5ff19: 19
14e493a6220e: 19
14e493a62207: 20
14e493a621f4: 20
14e493a6331c: 21
14e493a62a12: 22
14e493a5feb2: 23
14e493a5febb: 25
14e493a62c6b: 26
14e493a5f896: 27
14e493a5f867: 27
14e493a86672: 27
14e493a8663e: 30
14e493a62cde: 33
14e493a62d4d: 33
14e493a62d43: 35
14e493a6010a: 35
14e493a6298d: 35
14e493a5fe97: 37
14e493a5fc11: 37
14e493a62cb6: 40
14e493a62cd4: 42
559889cb1327: 44
14e493a5f5a7: 46
14e493a60174: 49
14e493a866c7: 54
14e493a866cb: 55
14e493a866cf: 57
14e493a600e6: 59
14e493a866d3: 61
14e493a5fc15: 62
14e493a5fef2: 68
14e493a60123: 75
14e493a5ff10: 84
14e493a600f0: 105
14e493a5fbf5: 115
14e493a5f8f4: 126
14e493a8668a: 127
14e493a5f574: 132
14e493a5f4f8: 140
559889caf720: 144
14e493a62961: 149
14e493a5f60d: 158
14e493a5f8e8: 163
559889cb11e3: 167
14e493a5ff73: 169
14e493a866f6: 173
14e493a5f65b: 176
14e493a5f58f: 180
14e493a62978: 180
14e493a5f323: 188
14e493a620cf: 190
14e493a620e3: 191
14e493a62e55: 192
14e493a6207d: 198
14e493a620af: 199
14e4943fbb30: 201
559889caf5b0: 203
559889caf580: 203
14e493a620c1: 204
14e493a62076: 208
14e4943fc3f0: 214
14e493a5f581: 218
14e493a5f5f4: 221
14e493a866c4: 221
14e493a62d1a: 226
14e493a8667f: 375
559889cb11b8: 839
14e493a86686: 922
559889cb11eb: 1532
14e493a86682: 1856
559889cb12dc: 2233
14e493a86706: 9186
559889cb11d5: 9336
14e493a8670e: 9452
14e493a8670a: 9857
14e493a86703: 10716
559889cb11e7: 11850
559889cb12d8: 16836
559889cb1200: 49044
559889cb1226: 6817244
PSCL5 TOTAL     ACCESS:      57547  HIT:      57547  MISS:          0  HIT %:        100  MISS %:          0   MPKI: 0
PSCL5 Test counter:          0
PSCL5 LOAD TRANSLATION ACCESS:      57547  HIT:      57547  MISS:          0  HIT %:        100  MISS %:          0   MPKI: 0
PSCL5 PREFETCH  REQUESTED:          0  ISSUED:          0  USEFUL:          0  USELESS:          0
PSCL5 USEFUL LOAD PREFETCHES:          0 PREFETCH ISSUED TO LOWER LEVEL:          0  ACCURACY: -nan
PSCL5 TIMELY PREFETCHES:          0 LATE PREFETCHES: 0 DROPPED PREFETCHES: 0
PSCL5 COMMIT LATE PREFETCHES: 0 MISSED OPPORTUNITY: 0 LATE IN PQ: 0 UNCOVERED: 0
PSCL5 COMMIT LATE MSHR PREFETCHES: 0
PSCL5 MPKI TOTAL: 0 MSHR LATE: 0 PQ LATE: 0 COMMIT LATE: 0 MISSED OPPORTUNITY: 0 UNCOVERED: 0
PSCL5 PREFETCHES SAME FILL-ORIGIN LEVEL: 0 DIFFERENT FILL-ORIGIN LEVEL: 0

PSCL4 TOTAL     ACCESS:      57547  HIT:      57547  MISS:          0  HIT %:        100  MISS %:          0   MPKI: 0
PSCL4 Test counter:          0
PSCL4 LOAD TRANSLATION ACCESS:      57547  HIT:      57547  MISS:          0  HIT %:        100  MISS %:          0   MPKI: 0
PSCL4 PREFETCH  REQUESTED:          0  ISSUED:          0  USEFUL:          0  USELESS:          0
PSCL4 USEFUL LOAD PREFETCHES:          0 PREFETCH ISSUED TO LOWER LEVEL:          0  ACCURACY: -nan
PSCL4 TIMELY PREFETCHES:          0 LATE PREFETCHES: 0 DROPPED PREFETCHES: 0
PSCL4 COMMIT LATE PREFETCHES: 0 MISSED OPPORTUNITY: 0 LATE IN PQ: 0 UNCOVERED: 0
PSCL4 COMMIT LATE MSHR PREFETCHES: 0
PSCL4 MPKI TOTAL: 0 MSHR LATE: 0 PQ LATE: 0 COMMIT LATE: 0 MISSED OPPORTUNITY: 0 UNCOVERED: 0
PSCL4 PREFETCHES SAME FILL-ORIGIN LEVEL: 0 DIFFERENT FILL-ORIGIN LEVEL: 0

PSCL3 TOTAL     ACCESS:      57547  HIT:      57547  MISS:          0  HIT %:        100  MISS %:          0   MPKI: 0
PSCL3 Test counter:          0
PSCL3 LOAD TRANSLATION ACCESS:      57547  HIT:      57547  MISS:          0  HIT %:        100  MISS %:          0   MPKI: 0
PSCL3 PREFETCH  REQUESTED:          0  ISSUED:          0  USEFUL:          0  USELESS:          0
PSCL3 USEFUL LOAD PREFETCHES:          0 PREFETCH ISSUED TO LOWER LEVEL:          0  ACCURACY: -nan
PSCL3 TIMELY PREFETCHES:          0 LATE PREFETCHES: 0 DROPPED PREFETCHES: 0
PSCL3 COMMIT LATE PREFETCHES: 0 MISSED OPPORTUNITY: 0 LATE IN PQ: 0 UNCOVERED: 0
PSCL3 COMMIT LATE MSHR PREFETCHES: 0
PSCL3 MPKI TOTAL: 0 MSHR LATE: 0 PQ LATE: 0 COMMIT LATE: 0 MISSED OPPORTUNITY: 0 UNCOVERED: 0
PSCL3 PREFETCHES SAME FILL-ORIGIN LEVEL: 0 DIFFERENT FILL-ORIGIN LEVEL: 0

PSCL2 TOTAL     ACCESS:      57547  HIT:      45716  MISS:      11831  HIT %:    79.4412  MISS %:    20.5588   MPKI: 0.059155
PSCL2 Test counter:          0
PSCL2 LOAD TRANSLATION ACCESS:      57547  HIT:      45716  MISS:      11831  HIT %:    79.4412  MISS %:    20.5588   MPKI: 0.059155
PSCL2 PREFETCH  REQUESTED:          0  ISSUED:          0  USEFUL:          0  USELESS:          0
PSCL2 USEFUL LOAD PREFETCHES:          0 PREFETCH ISSUED TO LOWER LEVEL:          0  ACCURACY: -nan
PSCL2 TIMELY PREFETCHES:          0 LATE PREFETCHES: 0 DROPPED PREFETCHES: 0
PSCL2 COMMIT LATE PREFETCHES: 0 MISSED OPPORTUNITY: 0 LATE IN PQ: 0 UNCOVERED: 0
PSCL2 COMMIT LATE MSHR PREFETCHES: 0
PSCL2 MPKI TOTAL: 0 MSHR LATE: 0 PQ LATE: 0 COMMIT LATE: 0 MISSED OPPORTUNITY: 0 UNCOVERED: 0
PSCL2 PREFETCHES SAME FILL-ORIGIN LEVEL: 0 DIFFERENT FILL-ORIGIN LEVEL: 0

LLC TOTAL     ACCESS:   10487617  HIT:    5085359  MISS:    5402258  HIT %:    48.4892  MISS %:    51.5108   MPKI: 27.0113
LLC Test counter:          0
LLC LOAD      ACCESS:    6892579  HIT:    3710792  MISS:    3181787  HIT %:    53.8375  MISS %:    46.1625   MPKI: 15.9089
LLC RFO       ACCESS:     172106  HIT:      69575  MISS:     102531  HIT %:    40.4257  MISS %:    59.5743   MPKI: 0.512655
LLC PREFETCH  ACCESS:    2544810  HIT:     468087  MISS:    2076723  HIT %:    18.3938  MISS %:    81.6062   MPKI: 10.3836
LLC WRITEBACK ACCESS:     834283  HIT:     826483  MISS:       7800  HIT %:    99.0651  MISS %:   0.934935   MPKI: 0.039
LLC LOAD TRANSLATION ACCESS:      43839  HIT:      10422  MISS:      33417  HIT %:    23.7734  MISS %:    76.2266   MPKI: 0.167085
LLC PREFETCH  REQUESTED:          0  ISSUED:          0  USEFUL:     200152  USELESS:    1877943
LLC USEFUL LOAD PREFETCHES:     200152 PREFETCH ISSUED TO LOWER LEVEL:    2089181  ACCURACY: 9.5804
LLC TIMELY PREFETCHES:     200152 LATE PREFETCHES: 12457 DROPPED PREFETCHES: 0
LLC COMMIT LATE PREFETCHES: 0 MISSED OPPORTUNITY: 0 LATE IN PQ: 0 UNCOVERED: 0
LLC COMMIT LATE MSHR PREFETCHES: 0
LLC MPKI TOTAL: 15.9089 MSHR LATE: 0.062285 PQ LATE: 0 COMMIT LATE: 0 MISSED OPPORTUNITY: 0 UNCOVERED: 0
LLC PREFETCHES SAME FILL-ORIGIN LEVEL: 485614 DIFFERENT FILL-ORIGIN LEVEL: 0
LLC AVERAGE MISS LATENCY: 157.075 cycles
LLC AVERAGE MISS LATENCY LOAD: 152.333 cycles
LLC AVERAGE MISS LATENCY PREFETCH: 162.072 cycles
LLC AVERAGE MSHR OCCUPANCY: 1.87352
LLC MSHR FULL: 0
LLC RQ	ACCESS:    7108525	FORWARD:          0	MERGED:          0	TO_CACHE:    7108524
LLC WQ	ACCESS:     834283	FORWARD:          1	MERGED:          0	TO_CACHE:     834283
LLC PQ	ACCESS:    2562019	FORWARD:          0	MERGED:       1880	TO_CACHE:    2560139

LLC Dense regions hint to LLC: 0
14e493a5b965: 1
14e493a865d4: 1
14e493a5b9a5: 1
14e493a5ba06: 1
14e493a5b9de: 1
14e493a62a27: 1
14e493a5b9fc: 1
559889cb15c5: 1
559889cb11c5: 1
14e493a62d7f: 1
14e493a5b99b: 1
14e493a8657e: 1
14e493a86477: 1
14e493a5f913: 1
14e493a8658f: 1
7ffeb778ad75: 1
14e493a5b97e: 1
14e493a62c61: 1
14e493a5b93c: 1
14e493a62c88: 1
14e493a62c4f: 1
14e493a62c45: 1
14e493a86641: 2
14e493a60252: 3
14e493a62d67: 3
14e493a63457: 3
14e493a865c8: 3
559889cb132f: 3
14e493a6345d: 3
14e493a5ff2b: 3
14e493a865c5: 3
14e493a6339a: 4
14e493a62d3b: 4
559889cb14d3: 4
14e493a86646: 5
14e493a6344d: 5
14e493a6024c: 5
14e493a5fe6c: 6
14e493a633a4: 6
14e493a6298d: 7
14e493a6021e: 7
14e493a86650: 7
14e493a6338c: 7
14e493a60135: 8
14e493a8664b: 8
14e493a62ccc: 8
14e493a5ff19: 10
14e493a62e41: 10
14e493a60106: 11
14e493a5f795: 11
14e493a6015a: 11
14e493a86672: 11
14e493a5ff46: 12
14e493a600ec: 12
14e493a6012d: 13
14e493a5f62d: 13
14e493a62cf9: 13
14e493a6013f: 14
14e493a5f5a7: 14
14e493a5f896: 15
14e493a62a12: 15
14e493a6220e: 16
14e493a5febb: 18
14e493a6331c: 19
14e493a621f4: 19
14e493a62207: 20
14e493a5f867: 20
14e493a866d3: 21
14e493a5feb2: 21
14e493a62c6b: 22
14e493a6010a: 27
14e493a62cde: 29
14e493a62d43: 30
14e493a8663e: 30
14e493a5fc11: 30
14e493a62d4d: 31
14e493a5fe97: 33
14e493a62cb6: 36
559889cb1327: 37
14e493a62cd4: 40
14e493a8668a: 43
14e493a60174: 45
14e493a600e6: 47
559889caf720: 47
14e493a5f4f8: 48
14e493a5f574: 50
14e493a5fc15: 52
14e493a5fef2: 52
14e493a866c7: 53
14e493a5ff73: 53
14e493a866cb: 54
14e493a866cf: 57
14e493a62961: 59
14e493a5f58f: 62
14e493a620e3: 63
14e493a62978: 64
14e493a866f6: 65
14e493a5ff10: 67
14e493a62076: 67
14e493a62e55: 68
14e493a60123: 69
14e4943fc3f0: 70
14e493a5f323: 71
14e493a5f65b: 74
14e493a620af: 76
559889cb11e3: 77
14e493a600f0: 77
14e493a620cf: 79
14e493a5f581: 81
14e493a620c1: 84
14e493a6207d: 84
14e4943fbb30: 86
14e493a5f8f4: 87
559889caf5b0: 90
14e493a5f8e8: 96
559889caf580: 97
14e493a5fbf5: 99
559889cb12dc: 110
14e493a8667f: 119
14e493a5f60d: 130
14e493a5f5f4: 142
14e493a86686: 198
14e493a62d1a: 218
14e493a866c4: 218
14e493a86682: 361
559889cb11b8: 383
559889cb12d8: 845
559889cb11eb: 1530
14e493a86706: 2258
14e493a8670e: 2276
14e493a8670a: 2438
14e493a86703: 2637
559889cb11d5: 4715
559889cb11e7: 11841
559889cb1200: 47912
559889cb1226: 3100120

RAW hits: 66288
Loads Generated: 76806241
Loads sent to L1D: 76739952
Stores Generated: 2204913
Stores sent to L1D: 2204915
Major fault: 0 Minor fault: 36550
Allocated PAGES: 36550
Total Load insts: 93562122
Total Non-spec loads: 6389779
Percentage of speculative loads: 93.1705
L1D response latency: 82.8231 cycles
Load retirement latency: 170.641 cycles

------------------
Depth Distribution
------------------
depth 0: 9022950
depth 1: 1804203
depth 2: 211553
depth 3: 342104
depth 4: 485179
depth 5: 429692
depth 6: 95748
depth 7: 32997
depth 8: 7159
depth 9: 3770
depth 10: 539
depth 11: 2181
depth 12: 1083
depth 13: 234
depth 14: 454
depth 15: 1
depth 16: 0
depth 17: 0
depth 18: 0
depth 19: 0
depth 20: 0
depth 21: 0
depth 22: 0
depth 23: 0
depth 24: 0
depth 25: 0
depth 26: 0
depth 27: 0
depth 28: 0
depth 29: 0
Total: 12439847
------------------
ST read accesses: 6597245
ST write accesses: 3777771
PT read accesses: 105573888
PT write accesses: 7749490
FILTER read accesses: 39324620
FILTER write accesses: 25661608
GHR read accesses: 33003473
GHR write accesses: 366089
PERC read accesses: 625779639
PERC write accesses: 27375128
GHR counter read accesses: 20750032
GHR counter write accesses: 14136794
GHR ip read accesses: 49877553
GHR ip write accesses: 41500064
ST tag read accesses: 5927485854
ST tag write accesses: 1008573896

DRAM Statistics
 CHANNEL 0
 RQ ROW_BUFFER_HIT:    1668415  ROW_BUFFER_MISS:    3725994
 DBUS_CONGESTED:       5209
 WQ ROW_BUFFER_HIT:     215324  ROW_BUFFER_MISS:     503737  FULL:          0

 AVG_CONGESTED_CYCLE: 4
 All warmup complete: 2
Channel 0 Bank busy for read cycles: 0
Channel 0 Bank busy for write cycles: 0
Channel 0
Rank 0
0banks busy for read cycles: 101272093
0banks busy for write cycles: 328974
1banks busy for read cycles: 152971151
1banks busy for write cycles: 54559182
2banks busy for read cycles: 91712462
2banks busy for write cycles: 23686114
3banks busy for read cycles: 49607947
3banks busy for write cycles: 9361423
4banks busy for read cycles: 21782084
4banks busy for write cycles: 3606229
5banks busy for read cycles: 8039032
5banks busy for write cycles: 1379902
6banks busy for read cycles: 2544641
6banks busy for write cycles: 571163
7banks busy for read cycles: 798535
7banks busy for write cycles: 273299
8banks busy for read cycles: 1156658
8banks busy for write cycles: 357960

CPU 0 Branch Prediction Accuracy: 97.7925% MPKI: 3.28398 Average ROB Occupancy at Mispredict: 166.695
Branch types
NOT_BRANCH: 170247338 85.1237%
BRANCH_DIRECT_JUMP: 9228470 4.61423%
BRANCH_INDIRECT: 0 0%
BRANCH_CONDITIONAL: 20521452 10.2607%
BRANCH_DIRECT_CALL: 1299 0.0006495%
BRANCH_INDIRECT_CALL: 0 0%
BRANCH_RETURN: 1299 0.0006495%
BRANCH_OTHER: 0 0%

DRAM PAGES: 1048576
Allocated PAGES: 36550
