Initialize SIGNATURE TABLE
ST_SET: 1
ST_WAY: 256
ST_TAG_BIT: 16
ST_TAG_MASK: ffff

Initialize PATTERN TABLE
PT_SET: 512
PT_WAY: 4
SIG_DELTA_BIT: 7
C_SIG_BIT: 4
C_DELTA_BIT: 4

Initialize PREFETCH FILTER
FILTER_SET: 1024

Initialize PERCEPTRON
PERC_ENTRIES: 4096
PERC_FEATURES: 9

*** ChampSim Multicore Out-of-Order Simulator ***

Warmup Instructions: 50000000
Simulation Instructions: 200000000
Number of CPUs: 1
LLC sets: 2048
LLC ways: 16
Secure Berti: OFF
Berti: OFF
Berti Fill: OFF
On commit prefetching: OFF
L2 LLC Bypass speculative loads: OFF
Off-chip DRAM Size: 4096 MB Channels: 1 Width: 64-bit Data Rate: 6400 MT/s
CPU 0 runs /home/sumon/secure_berti/Berti_Baseline/../../traces/gap/sssp-5.trace.gz
.gz
BTB has LRU replacement policy
ITLB has LRU replacement policy
DTLB has LRU replacement policy
STLB has LRU replacement policy
L1I has LRU replacement policy
L1D has LRU replacement policy
PERC_ENTRIES: 4096
L2C has LRU replacement policy
LLC has LRU replacement policy
Heartbeat CPU 0 instructions: 10000001 cycles: 3078020 heartbeat IPC: 3.24884 cumulative IPC: 3.24884 (Simulation time: 0 hr 0 min 30 sec) 
Heartbeat CPU 0 instructions: 20000000 cycles: 6134684 heartbeat IPC: 3.27154 cumulative IPC: 3.26015 (Simulation time: 0 hr 0 min 58 sec) 
Heartbeat CPU 0 instructions: 30000001 cycles: 9209375 heartbeat IPC: 3.25236 cumulative IPC: 3.25755 (Simulation time: 0 hr 1 min 31 sec) 
Heartbeat CPU 0 instructions: 40000000 cycles: 12297087 heartbeat IPC: 3.23864 cumulative IPC: 3.2528 (Simulation time: 0 hr 1 min 55 sec) 
Heartbeat CPU 0 instructions: 50000003 cycles: 15389741 heartbeat IPC: 3.23347 cumulative IPC: 3.24892 (Simulation time: 0 hr 2 min 15 sec) 

Warmup complete CPU 0 instructions: 50000003 cycles: 15389741 (Simulation time: 0 hr 2 min 15 sec) 

Heartbeat CPU 0 instructions: 60000002 cycles: 45489309 heartbeat IPC: 0.332231 cumulative IPC: 0.332231 (Simulation time: 0 hr 2 min 45 sec) 
Heartbeat CPU 0 instructions: 70000001 cycles: 74738113 heartbeat IPC: 0.341894 cumulative IPC: 0.336993 (Simulation time: 0 hr 3 min 16 sec) 
Heartbeat CPU 0 instructions: 80000000 cycles: 102712363 heartbeat IPC: 0.357472 cumulative IPC: 0.343554 (Simulation time: 0 hr 3 min 47 sec) 
Heartbeat CPU 0 instructions: 90000001 cycles: 130818306 heartbeat IPC: 0.355797 cumulative IPC: 0.346535 (Simulation time: 0 hr 4 min 18 sec) 
Heartbeat CPU 0 instructions: 100000000 cycles: 158378321 heartbeat IPC: 0.362844 cumulative IPC: 0.349678 (Simulation time: 0 hr 4 min 49 sec) 
Heartbeat CPU 0 instructions: 110000000 cycles: 185334241 heartbeat IPC: 0.370976 cumulative IPC: 0.353056 (Simulation time: 0 hr 5 min 21 sec) 
Heartbeat CPU 0 instructions: 120000000 cycles: 211745945 heartbeat IPC: 0.37862 cumulative IPC: 0.356495 (Simulation time: 0 hr 5 min 52 sec) 
Heartbeat CPU 0 instructions: 130000000 cycles: 238250827 heartbeat IPC: 0.377289 cumulative IPC: 0.358968 (Simulation time: 0 hr 6 min 24 sec) 
Heartbeat CPU 0 instructions: 140000000 cycles: 264327592 heartbeat IPC: 0.383483 cumulative IPC: 0.361536 (Simulation time: 0 hr 6 min 55 sec) 
Heartbeat CPU 0 instructions: 150000000 cycles: 290158694 heartbeat IPC: 0.38713 cumulative IPC: 0.363942 (Simulation time: 0 hr 7 min 28 sec) 
Heartbeat CPU 0 instructions: 160000000 cycles: 315666492 heartbeat IPC: 0.392037 cumulative IPC: 0.366329 (Simulation time: 0 hr 8 min 0 sec) 
Heartbeat CPU 0 instructions: 170000002 cycles: 341104486 heartbeat IPC: 0.393113 cumulative IPC: 0.368421 (Simulation time: 0 hr 8 min 33 sec) 
Heartbeat CPU 0 instructions: 180000000 cycles: 366539580 heartbeat IPC: 0.393158 cumulative IPC: 0.370212 (Simulation time: 0 hr 9 min 6 sec) 
Heartbeat CPU 0 instructions: 190000000 cycles: 391873606 heartbeat IPC: 0.394726 cumulative IPC: 0.371862 (Simulation time: 0 hr 9 min 39 sec) 
Heartbeat CPU 0 instructions: 200000001 cycles: 416952509 heartbeat IPC: 0.398742 cumulative IPC: 0.373541 (Simulation time: 0 hr 10 min 12 sec) 
Heartbeat CPU 0 instructions: 210000000 cycles: 441730797 heartbeat IPC: 0.403579 cumulative IPC: 0.375286 (Simulation time: 0 hr 10 min 45 sec) 
Heartbeat CPU 0 instructions: 220000000 cycles: 466761142 heartbeat IPC: 0.399515 cumulative IPC: 0.37663 (Simulation time: 0 hr 11 min 19 sec) 
Heartbeat CPU 0 instructions: 230000002 cycles: 491512262 heartbeat IPC: 0.404022 cumulative IPC: 0.378054 (Simulation time: 0 hr 11 min 52 sec) 
Heartbeat CPU 0 instructions: 240000002 cycles: 516015876 heartbeat IPC: 0.408103 cumulative IPC: 0.379525 (Simulation time: 0 hr 12 min 25 sec) 
Heartbeat CPU 0 instructions: 250000000 cycles: 540707696 heartbeat IPC: 0.404992 cumulative IPC: 0.380722 (Simulation time: 0 hr 12 min 58 sec) 
Finished CPU 0 instructions: 200000001 cycles: 525317956 cumulative IPC: 0.380722 (Simulation time: 0 hr 12 min 58 sec) 

ChampSim completed all CPUs

Region of Interest Statistics

CPU 0 cumulative IPC: 0.380722 instructions: 200000001 cycles: 525317956
ITLB TOTAL     ACCESS:   24414559  HIT:   24414559  MISS:          0  HIT %:        100  MISS %:          0   MPKI: 0
ITLB Test counter:          0
ITLB LOAD TRANSLATION ACCESS:   24414559  HIT:   24414559  MISS:          0  HIT %:        100  MISS %:          0   MPKI: 0
ITLB PREFETCH  REQUESTED:          0  ISSUED:          0  USEFUL:          0  USELESS:          0
ITLB USEFUL LOAD PREFETCHES:          0 PREFETCH ISSUED TO LOWER LEVEL:          0  ACCURACY: -nan
ITLB TIMELY PREFETCHES:          0 LATE PREFETCHES: 0 DROPPED PREFETCHES: 0
ITLB COMMIT LATE PREFETCHES: 0 MISSED OPPORTUNITY: 0 LATE IN PQ: 0 UNCOVERED: 0
ITLB COMMIT LATE MSHR PREFETCHES: 0
ITLB MPKI TOTAL: 0 MSHR LATE: 0 PQ LATE: 0 COMMIT LATE: 0 MISSED OPPORTUNITY: 0 UNCOVERED: 0
ITLB PREFETCHES SAME FILL-ORIGIN LEVEL: 0 DIFFERENT FILL-ORIGIN LEVEL: 0
ITLB AVERAGE MISS LATENCY: -nan cycles
ITLB AVERAGE MISS LATENCY LOAD: -nan cycles
ITLB AVERAGE MISS LATENCY PREFETCH: -nan cycles
ITLB AVERAGE MSHR OCCUPANCY: 0
ITLB MSHR FULL: 0
ITLB RQ	ACCESS:   25087662	FORWARD:          0	MERGED:     673103	TO_CACHE:   24414559

DTLB TOTAL     ACCESS:   43402671  HIT:   38880725  MISS:    4521946  HIT %:    89.5814  MISS %:    10.4186   MPKI: 22.6097
DTLB Test counter:          0
DTLB LOAD TRANSLATION ACCESS:   43402671  HIT:   38880725  MISS:    4521946  HIT %:    89.5814  MISS %:    10.4186   MPKI: 22.6097
DTLB PREFETCH  REQUESTED:          0  ISSUED:          0  USEFUL:          0  USELESS:          0
DTLB USEFUL LOAD PREFETCHES:          0 PREFETCH ISSUED TO LOWER LEVEL:          0  ACCURACY: -nan
DTLB TIMELY PREFETCHES:          0 LATE PREFETCHES: 0 DROPPED PREFETCHES: 0
DTLB COMMIT LATE PREFETCHES: 0 MISSED OPPORTUNITY: 0 LATE IN PQ: 0 UNCOVERED: 0
DTLB COMMIT LATE MSHR PREFETCHES: 0
DTLB MPKI TOTAL: 0 MSHR LATE: 0 PQ LATE: 0 COMMIT LATE: 0 MISSED OPPORTUNITY: 0 UNCOVERED: 0
DTLB PREFETCHES SAME FILL-ORIGIN LEVEL: 0 DIFFERENT FILL-ORIGIN LEVEL: 0
DTLB AVERAGE MISS LATENCY: 11.7197 cycles
DTLB AVERAGE MISS LATENCY LOAD: -nan cycles
DTLB AVERAGE MISS LATENCY PREFETCH: -nan cycles
DTLB AVERAGE MSHR OCCUPANCY: 0.170508
DTLB MSHR FULL: 1.37755e-07
DTLB RQ	ACCESS:   45717372	FORWARD:          0	MERGED:    2161707	TO_CACHE:   43555665

STLB TOTAL     ACCESS:    4521946  HIT:    4463387  MISS:      58559  HIT %:     98.705  MISS %:      1.295   MPKI: 0.292795
STLB Test counter:          0
STLB LOAD TRANSLATION ACCESS:    4521946  HIT:    4463387  MISS:      58559  HIT %:     98.705  MISS %:      1.295   MPKI: 0.292795
STLB PREFETCH  REQUESTED:          0  ISSUED:          0  USEFUL:          0  USELESS:          0
STLB USEFUL LOAD PREFETCHES:          0 PREFETCH ISSUED TO LOWER LEVEL:          0  ACCURACY: -nan
STLB TIMELY PREFETCHES:          0 LATE PREFETCHES: 0 DROPPED PREFETCHES: 0
STLB COMMIT LATE PREFETCHES: 0 MISSED OPPORTUNITY: 0 LATE IN PQ: 0 UNCOVERED: 0
STLB COMMIT LATE MSHR PREFETCHES: 0
STLB MPKI TOTAL: 0 MSHR LATE: 0 PQ LATE: 0 COMMIT LATE: 0 MISSED OPPORTUNITY: 0 UNCOVERED: 0
STLB PREFETCHES SAME FILL-ORIGIN LEVEL: 0 DIFFERENT FILL-ORIGIN LEVEL: 0
STLB AVERAGE MISS LATENCY: 192.596 cycles
STLB AVERAGE MISS LATENCY LOAD: -nan cycles
STLB AVERAGE MISS LATENCY PREFETCH: -nan cycles
STLB AVERAGE MSHR OCCUPANCY: 0.00550272
STLB MSHR FULL: 0
STLB RQ	ACCESS:    4521946	FORWARD:          0	MERGED:          0	TO_CACHE:    4521946

STLB Hit, L1D data hit: 0
STLB Hit, L2C data hit: 0
STLB Hit, LLC data hit: 0
STLB Hit, LLC data miss: 0
STLB STLB hints to L2: 0
L1D TOTAL     ACCESS:   44937842  HIT:   34119028  MISS:   10818814  HIT %:    75.9249  MISS %:    24.0751   MPKI: 54.0941
L1D Test counter:          0
L1D LOAD      ACCESS:   42881271  HIT:   32533944  MISS:   10942782  HIT %:    75.8698  MISS %:    24.1302   MPKI: 51.7366
L1D RFO       ACCESS:    2056571  HIT:    1585084  MISS:     471487  HIT %:    77.0741  MISS %:    22.9259   MPKI: 2.35743
L1D PREFETCH  REQUESTED:          0  ISSUED:          0  USEFUL:          0  USELESS:          0
L1D USEFUL LOAD PREFETCHES:          0 PREFETCH ISSUED TO LOWER LEVEL:          0  ACCURACY: -nan
L1D TIMELY PREFETCHES:          0 LATE PREFETCHES: 0 DROPPED PREFETCHES: 0
L1D COMMIT LATE PREFETCHES: 0 MISSED OPPORTUNITY: 0 LATE IN PQ: 0 UNCOVERED: 0
L1D COMMIT LATE MSHR PREFETCHES: 0
L1D MPKI TOTAL: 54.7139 MSHR LATE: 0 PQ LATE: 0 COMMIT LATE: 0 MISSED OPPORTUNITY: 0 UNCOVERED: 0
L1D PREFETCHES SAME FILL-ORIGIN LEVEL: 0 DIFFERENT FILL-ORIGIN LEVEL: 0
L1D AVERAGE MISS LATENCY: 82.8157 cycles
L1D AVERAGE MISS LATENCY LOAD: 83.2275 cycles
L1D AVERAGE MISS LATENCY PREFETCH: -nan cycles
L1D AVERAGE MSHR OCCUPANCY: 1.7541
L1D MSHR FULL: 0.0253262
L1D RQ	ACCESS:   76697828	FORWARD:          0	MERGED:   33216797	TO_CACHE:   43476725
L1D WQ	ACCESS:    2241352	FORWARD:       4306	MERGED:        705	TO_CACHE:    2240647

L1D UNIQUE REGIONS ACCESSED: 0
L1D REGIONS CONFLICTS: 0
L1D Cross Page Prefetch Requests: 0
L1D Same Page Prefetch Requests: 0
L1D ROI Sum of L1D PQ occupancy: 0
L1D PREFETCHES PUSHED FROM L2C: 0
56112c14a1c5: 1
14f7c93e65d0: 1
14f7c93e6477: 1
14f7c93e657e: 1
56112c14a5c5: 1
56112c14a48c: 1
14f7c93e658f: 1
14f7c93e65c8: 1
56112c14a4aa: 1
56112c14a485: 1
14f7c93e65cc: 1
56112c14a4af: 1
56112c14a322: 1
56112c14a386: 1
56112c148710: 1
7ffc04bd1d75: 1
56112c14a442: 1
14f7c93e66c3: 2
14f7c93e65d4: 2
14f7c93c345d: 2
14f7c93e65c5: 3
14f7c93c020e: 3
14f7c93bf913: 3
14f7c93c3457: 4
14f7c93c344d: 4
14f7c93c2cf9: 4
14f7c93c2d67: 5
14f7c93c33a4: 5
14f7c93c0252: 5
14f7c93c339a: 5
14f7c93e6650: 5
56112c14a568: 6
14f7c93bff2b: 6
14f7c93c021e: 6
14f7c93c2d3b: 8
14f7c93bf795: 9
14f7c93c338c: 9
14f7c93c2ccc: 11
14f7c93e664b: 11
14f7c93e6646: 11
14f7c93c024c: 11
14f7c93bfe6c: 13
14f7c93bff19: 16
14f7c93c331c: 16
14f7c93c2207: 16
14f7c93c2e41: 16
14f7c93c220e: 16
14f7c93c21f4: 16
14f7c93bf62d: 17
14f7c93c012d: 18
14f7c93c2d4d: 19
56112c14a585: 20
14f7c93bff46: 20
14f7c93c2a12: 21
14f7c93c013f: 22
14f7c93c0135: 23
14f7c93c015a: 24
14f7c93c0106: 24
56112c14a4d3: 25
56112c14a317: 25
14f7c93c2d43: 26
14f7c93bfebb: 28
14f7c93bf867: 29
14f7c93bf896: 29
14f7c93c00ec: 30
14f7c93bfe97: 31
14f7c93e6641: 34
14f7c93e6672: 35
14f7c93e663e: 36
14f7c93c2cde: 37
14f7c93c2cd4: 42
14f7c93c2cb6: 42
14f7c93e674a: 45
14f7c93c29a6: 46
56112c14a32f: 46
56112c14a327: 46
14f7c93c2d7f: 46
14f7c93c299f: 46
56112c14a539: 46
14f7c93c2a09: 46
14f7c93c2971: 46
14f7c93bfeb2: 49
14f7c93c2c61: 51
14f7c93c2c4f: 51
14f7c93c2a27: 51
14f7c93c2c95: 51
14f7c93c2c45: 51
14f7c93e66cf: 54
14f7c93c2c88: 56
14f7c93e66cb: 59
14f7c93e66c7: 62
14f7c93c0174: 63
14f7c93c010a: 65
14f7c93bfef2: 68
14f7c93bf5a7: 73
14f7c93bff10: 78
14f7c93c0123: 81
14f7c93c00e6: 87
14f7c93bfc11: 87
14f7c93c298d: 98
14f7c93c2c6b: 103
14f7c93bfbf5: 137
14f7c93bf8f4: 151
14f7c93bfc15: 164
14f7c93c00f0: 166
14f7c93e66d3: 167
14f7c93bf60d: 188
14f7c93bf8e8: 200
14f7c93bff73: 215
14f7c93bf65b: 217
14f7c93e66f6: 222
14f7c93e66c4: 225
14f7c93bf58f: 235
14f7c93bf5f4: 241
14f7c93c2e55: 242
14f7c93c2d1a: 242
14f7c93c20e3: 242
14f7c93bf574: 243
14f7c93bf323: 243
14f7c93bf4f8: 244
14f7c93c20cf: 259
14f7c93c20af: 259
14f7c93c20c1: 259
14f7c93c2076: 259
56112c1485b0: 260
14f7c93c2978: 261
14f7c9d5c3f0: 261
56112c148580: 261
56112c148720: 261
14f7c93c207d: 261
14f7c93c2961: 262
14f7c9d5bb30: 262
14f7c93bf581: 272
14f7c93e667f: 374
14f7c93e6682: 1093
56112c14a1eb: 1551
14f7c93e6686: 1650
14f7c93e668a: 3106
56112c14a1e3: 3301
56112c14a1b8: 3889
14f7c93e6703: 9680
56112c14a1e7: 12029
56112c14a1d5: 12307
14f7c93e670a: 12756
14f7c93e6706: 15779
14f7c93e670e: 16244
56112c14a2dc: 28220
56112c14a2d8: 222078
56112c14a200: 1163655
56112c14a226: 8829560
L1I TOTAL     ACCESS:   25087660  HIT:   25087660  MISS:          0  HIT %:        100  MISS %:          0   MPKI: 0
L1I Test counter:          0
L1I LOAD      ACCESS:   25087660  HIT:   25087660  MISS:          0  HIT %:        100  MISS %:          0   MPKI: 0
L1I PREFETCH  REQUESTED:          0  ISSUED:          0  USEFUL:          0  USELESS:          0
L1I USEFUL LOAD PREFETCHES:          0 PREFETCH ISSUED TO LOWER LEVEL:          0  ACCURACY: -nan
L1I TIMELY PREFETCHES:          0 LATE PREFETCHES: 0 DROPPED PREFETCHES: 0
L1I COMMIT LATE PREFETCHES: 0 MISSED OPPORTUNITY: 0 LATE IN PQ: 0 UNCOVERED: 0
L1I COMMIT LATE MSHR PREFETCHES: 0
L1I MPKI TOTAL: 0 MSHR LATE: 0 PQ LATE: 0 COMMIT LATE: 0 MISSED OPPORTUNITY: 0 UNCOVERED: 0
L1I PREFETCHES SAME FILL-ORIGIN LEVEL: 0 DIFFERENT FILL-ORIGIN LEVEL: 0
L1I AVERAGE MISS LATENCY: -nan cycles
L1I AVERAGE MISS LATENCY LOAD: -nan cycles
L1I AVERAGE MISS LATENCY PREFETCH: -nan cycles
L1I AVERAGE MSHR OCCUPANCY: 0
L1I MSHR FULL: 0
L1I RQ	ACCESS:   38882765	FORWARD:          0	MERGED:   13795103	TO_CACHE:   25087662

BTB TOTAL     ACCESS:   29044147  HIT:   29044001  MISS:        146  HIT %:    99.9995  MISS %: 0.000502683   MPKI: 0.00073
BTB Test counter:          0
BTB BRANCH_DIRECT_JUMP	ACCESS:    9217196  HIT:    9217156  MISS:         40
BTB BRANCH_INDIRECT	ACCESS:          0  HIT:          0  MISS:          0
BTB BRANCH_CONDITIONAL	ACCESS:   19824303  HIT:   19824221  MISS:         82
BTB BRANCH_DIRECT_CALL	ACCESS:       1324  HIT:       1315  MISS:          9
BTB BRANCH_INDIRECT_CALL	ACCESS:          0  HIT:          0  MISS:          0
BTB BRANCH_RETURN	ACCESS:       1324  HIT:       1309  MISS:         15
BTB BRANCH_OTHER ACCESS:          0  HIT:          0  MISS:          0

L2C TOTAL     ACCESS:   14454005  HIT:    5352750  MISS:    9101255  HIT %:     37.033  MISS %:     62.967   MPKI: 45.5063
L2C Test counter:          0
L2C LOAD      ACCESS:   10347325  HIT:    3421247  MISS:    6926079  HIT %:    33.0641  MISS %:    66.9359   MPKI: 34.6304
L2C DATA LOAD MPKI: 34.6304
L2C INSTRUCTION LOAD MPKI: 0
L2C RFO       ACCESS:     471471  HIT:     294852  MISS:     176619  HIT %:    62.5387  MISS %:    37.4613   MPKI: 0.883095
L2C PREFETCH  ACCESS:    2211678  HIT:     259337  MISS:    1952341  HIT %:    11.7258  MISS %:    88.2742   MPKI: 9.7617
L2C DATA PREFETCH MPKI: 9.7617
L2C INSTRUCTION PREFETCH MPKI: 0
L2C WRITEBACK ACCESS:    1352913  HIT:    1351256  MISS:       1657  HIT %:    99.8775  MISS %:   0.122476   MPKI: 0.008285
L2C LOAD TRANSLATION ACCESS:      70618  HIT:      26058  MISS:      44560  HIT %:    36.8999  MISS %:    63.1001   MPKI: 0.2228
L2C PREFETCH  REQUESTED:    3310724  ISSUED:    3310723  USEFUL:    1221609  USELESS:     733876
L2C USEFUL LOAD PREFETCHES:    1221609 PREFETCH ISSUED TO LOWER LEVEL:    2964155  ACCURACY: 41.2127
L2C TIMELY PREFETCHES:    1221609 LATE PREFETCHES: 111769 DROPPED PREFETCHES: 0
L2C COMMIT LATE PREFETCHES: 0 MISSED OPPORTUNITY: 0 LATE IN PQ: 0 UNCOVERED: 0
L2C COMMIT LATE MSHR PREFETCHES: 0
L2C MPKI TOTAL: 34.6304 MSHR LATE: 0.558845 PQ LATE: 0 COMMIT LATE: 0 MISSED OPPORTUNITY: 0 UNCOVERED: 0
L2C PREFETCHES SAME FILL-ORIGIN LEVEL: 2064111 DIFFERENT FILL-ORIGIN LEVEL: 900044
L2C AVERAGE MISS LATENCY: 118.172 cycles
L2C AVERAGE MISS LATENCY LOAD: 101.76 cycles
L2C AVERAGE MISS LATENCY PREFETCH: 171.987 cycles
L2C AVERAGE MSHR OCCUPANCY: 2.33388
L2C MSHR FULL: 0
L2C RQ	ACCESS:   10889433	FORWARD:          0	MERGED:          0	TO_CACHE:   10889415
L2C WQ	ACCESS:    1352913	FORWARD:         18	MERGED:          0	TO_CACHE:    1352913
L2C PQ	ACCESS:    3310723	FORWARD:          0	MERGED:       9180	TO_CACHE:    3301543

L2C Instructions Evicting Data 0
L2C Translations Evicting Data 44319
L2C Data Evicting Data 9010778
L2C Instructions Evicting Instructions 0
L2C Translations Evicting Instructions 0
L2C Data Evicting Instructions 0
L2C Instructions Evicting Translations 0
L2C Translations Evicting Translations 241
L2C Data Evicting Translations 44260
L2C Dense regions hint from L2: 0
56112c148710: 1
56112c14a5c5: 1
14f7c93e65c8: 1
14f7c93e658f: 1
56112c14a442: 1
14f7c93c2a27: 1
56112c14a1c5: 1
14f7c93e657e: 1
14f7c93e65d0: 1
14f7c93e6477: 1
14f7c93e65cc: 1
7ffc04bd1d75: 1
56112c14a386: 1
56112c14a539: 1
14f7c93bf913: 2
14f7c93e65d4: 2
14f7c93c2c45: 2
14f7c93c2c4f: 2
14f7c93c345d: 2
14f7c93c020e: 3
14f7c93c2d67: 3
14f7c93c2d7f: 3
14f7c93c2cf9: 3
14f7c93c2c95: 3
14f7c93e65c5: 3
14f7c93c2c61: 3
14f7c93c3457: 4
14f7c93c344d: 4
14f7c93c33a4: 4
14f7c93e6650: 5
14f7c93bff2b: 5
56112c14a4d3: 5
14f7c93c2d3b: 5
14f7c93c339a: 5
14f7c93c0252: 5
14f7c93c021e: 6
14f7c93bf795: 7
14f7c93c2c88: 8
56112c14a32f: 9
14f7c93c338c: 9
14f7c93e664b: 10
14f7c93bfe6c: 11
14f7c93e6646: 11
14f7c93c2ccc: 11
14f7c93c024c: 11
14f7c93c012d: 12
14f7c93c2e41: 15
14f7c93c21f4: 16
14f7c93bff19: 16
14f7c93c331c: 16
14f7c93c220e: 16
14f7c93c2207: 16
14f7c93bf62d: 17
14f7c93c2d4d: 19
14f7c93c0106: 19
14f7c93e6641: 20
14f7c93c013f: 20
14f7c93c015a: 20
14f7c93bff46: 20
14f7c93c2a12: 21
14f7c93c00ec: 22
14f7c93bf867: 22
14f7c93c0135: 22
14f7c93bf896: 23
14f7c93c2c6b: 25
14f7c93c2d43: 25
14f7c93bfebb: 26
14f7c93e6672: 27
14f7c93bfe97: 28
14f7c93e663e: 35
14f7c93c2cb6: 35
14f7c93c2cde: 35
14f7c93c2cd4: 40
14f7c93c298d: 41
56112c14a327: 46
14f7c93bfeb2: 47
14f7c93e66cf: 54
14f7c93e66cb: 56
14f7c93bf5a7: 57
14f7c93c010a: 58
14f7c93e66c7: 62
14f7c93c0174: 63
14f7c93bfef2: 64
14f7c93e66d3: 71
14f7c93bff10: 75
14f7c93bfc11: 77
14f7c93c0123: 79
14f7c93c00e6: 83
14f7c93bfbf5: 128
14f7c93bf8f4: 137
14f7c93bf4f8: 149
14f7c93c00f0: 152
14f7c93bfc15: 157
14f7c93bff73: 163
14f7c93bf574: 170
56112c148720: 170
14f7c93bf8e8: 177
14f7c93bf60d: 178
14f7c93c2961: 178
14f7c93bf65b: 178
14f7c93e66f6: 179
14f7c93bf323: 186
14f7c93c20e3: 190
14f7c9d5c3f0: 191
14f7c93c2e55: 192
14f7c93bf58f: 192
14f7c93c2978: 195
14f7c93c2076: 199
56112c1485b0: 202
14f7c93c20af: 203
14f7c93c20cf: 203
14f7c93c20c1: 204
14f7c9d5bb30: 207
56112c148580: 209
14f7c93c207d: 210
14f7c93bf581: 216
14f7c93bf5f4: 217
14f7c93e66c4: 224
56112c14a1e3: 230
14f7c93c2d1a: 237
14f7c93e667f: 292
14f7c93e6682: 842
56112c14a1b8: 926
14f7c93e6686: 1275
56112c14a1eb: 1549
14f7c93e668a: 1975
56112c14a2dc: 2075
14f7c93e6703: 7629
56112c14a1d5: 9775
14f7c93e670a: 9898
14f7c93e6706: 11686
56112c14a1e7: 12027
14f7c93e670e: 12139
56112c14a2d8: 15184
56112c14a200: 52216
56112c14a226: 6778826
PSCL5 TOTAL     ACCESS:      58559  HIT:      58559  MISS:          0  HIT %:        100  MISS %:          0   MPKI: 0
PSCL5 Test counter:          0
PSCL5 LOAD TRANSLATION ACCESS:      58559  HIT:      58559  MISS:          0  HIT %:        100  MISS %:          0   MPKI: 0
PSCL5 PREFETCH  REQUESTED:          0  ISSUED:          0  USEFUL:          0  USELESS:          0
PSCL5 USEFUL LOAD PREFETCHES:          0 PREFETCH ISSUED TO LOWER LEVEL:          0  ACCURACY: -nan
PSCL5 TIMELY PREFETCHES:          0 LATE PREFETCHES: 0 DROPPED PREFETCHES: 0
PSCL5 COMMIT LATE PREFETCHES: 0 MISSED OPPORTUNITY: 0 LATE IN PQ: 0 UNCOVERED: 0
PSCL5 COMMIT LATE MSHR PREFETCHES: 0
PSCL5 MPKI TOTAL: 0 MSHR LATE: 0 PQ LATE: 0 COMMIT LATE: 0 MISSED OPPORTUNITY: 0 UNCOVERED: 0
PSCL5 PREFETCHES SAME FILL-ORIGIN LEVEL: 0 DIFFERENT FILL-ORIGIN LEVEL: 0

PSCL4 TOTAL     ACCESS:      58559  HIT:      58559  MISS:          0  HIT %:        100  MISS %:          0   MPKI: 0
PSCL4 Test counter:          0
PSCL4 LOAD TRANSLATION ACCESS:      58559  HIT:      58559  MISS:          0  HIT %:        100  MISS %:          0   MPKI: 0
PSCL4 PREFETCH  REQUESTED:          0  ISSUED:          0  USEFUL:          0  USELESS:          0
PSCL4 USEFUL LOAD PREFETCHES:          0 PREFETCH ISSUED TO LOWER LEVEL:          0  ACCURACY: -nan
PSCL4 TIMELY PREFETCHES:          0 LATE PREFETCHES: 0 DROPPED PREFETCHES: 0
PSCL4 COMMIT LATE PREFETCHES: 0 MISSED OPPORTUNITY: 0 LATE IN PQ: 0 UNCOVERED: 0
PSCL4 COMMIT LATE MSHR PREFETCHES: 0
PSCL4 MPKI TOTAL: 0 MSHR LATE: 0 PQ LATE: 0 COMMIT LATE: 0 MISSED OPPORTUNITY: 0 UNCOVERED: 0
PSCL4 PREFETCHES SAME FILL-ORIGIN LEVEL: 0 DIFFERENT FILL-ORIGIN LEVEL: 0

PSCL3 TOTAL     ACCESS:      58559  HIT:      58559  MISS:          0  HIT %:        100  MISS %:          0   MPKI: 0
PSCL3 Test counter:          0
PSCL3 LOAD TRANSLATION ACCESS:      58559  HIT:      58559  MISS:          0  HIT %:        100  MISS %:          0   MPKI: 0
PSCL3 PREFETCH  REQUESTED:          0  ISSUED:          0  USEFUL:          0  USELESS:          0
PSCL3 USEFUL LOAD PREFETCHES:          0 PREFETCH ISSUED TO LOWER LEVEL:          0  ACCURACY: -nan
PSCL3 TIMELY PREFETCHES:          0 LATE PREFETCHES: 0 DROPPED PREFETCHES: 0
PSCL3 COMMIT LATE PREFETCHES: 0 MISSED OPPORTUNITY: 0 LATE IN PQ: 0 UNCOVERED: 0
PSCL3 COMMIT LATE MSHR PREFETCHES: 0
PSCL3 MPKI TOTAL: 0 MSHR LATE: 0 PQ LATE: 0 COMMIT LATE: 0 MISSED OPPORTUNITY: 0 UNCOVERED: 0
PSCL3 PREFETCHES SAME FILL-ORIGIN LEVEL: 0 DIFFERENT FILL-ORIGIN LEVEL: 0

PSCL2 TOTAL     ACCESS:      58559  HIT:      46498  MISS:      12061  HIT %:    79.4037  MISS %:    20.5963   MPKI: 0.060305
PSCL2 Test counter:          0
PSCL2 LOAD TRANSLATION ACCESS:      58559  HIT:      46498  MISS:      12061  HIT %:    79.4037  MISS %:    20.5963   MPKI: 0.060305
PSCL2 PREFETCH  REQUESTED:          0  ISSUED:          0  USEFUL:          0  USELESS:          0
PSCL2 USEFUL LOAD PREFETCHES:          0 PREFETCH ISSUED TO LOWER LEVEL:          0  ACCURACY: -nan
PSCL2 TIMELY PREFETCHES:          0 LATE PREFETCHES: 0 DROPPED PREFETCHES: 0
PSCL2 COMMIT LATE PREFETCHES: 0 MISSED OPPORTUNITY: 0 LATE IN PQ: 0 UNCOVERED: 0
PSCL2 COMMIT LATE MSHR PREFETCHES: 0
PSCL2 MPKI TOTAL: 0 MSHR LATE: 0 PQ LATE: 0 COMMIT LATE: 0 MISSED OPPORTUNITY: 0 UNCOVERED: 0
PSCL2 PREFETCHES SAME FILL-ORIGIN LEVEL: 0 DIFFERENT FILL-ORIGIN LEVEL: 0

LLC TOTAL     ACCESS:   10816938  HIT:    5116373  MISS:    5700565  HIT %:    47.2996  MISS %:    52.7004   MPKI: 28.5028
LLC Test counter:          0
LLC LOAD      ACCESS:    6814309  HIT:    3633358  MISS:    3180952  HIT %:    53.3195  MISS %:    46.6805   MPKI: 15.9048
LLC RFO       ACCESS:     176618  HIT:      69318  MISS:     107300  HIT %:    39.2474  MISS %:    60.7526   MPKI: 0.5365
LLC PREFETCH  ACCESS:    2937372  HIT:     567339  MISS:    2370033  HIT %:    19.3145  MISS %:    80.6855   MPKI: 11.8502
LLC WRITEBACK ACCESS:     844079  HIT:     835784  MISS:       8295  HIT %:    99.0173  MISS %:   0.982728   MPKI: 0.041475
LLC LOAD TRANSLATION ACCESS:      44560  HIT:      10574  MISS:      33986  HIT %:    23.7298  MISS %:    76.2702   MPKI: 0.16993
LLC PREFETCH  REQUESTED:          0  ISSUED:          0  USEFUL:     241320  USELESS:    2138364
LLC USEFUL LOAD PREFETCHES:     241320 PREFETCH ISSUED TO LOWER LEVEL:    2387738  ACCURACY: 10.1066
LLC TIMELY PREFETCHES:     241320 LATE PREFETCHES: 17705 DROPPED PREFETCHES: 0
LLC COMMIT LATE PREFETCHES: 0 MISSED OPPORTUNITY: 0 LATE IN PQ: 0 UNCOVERED: 0
LLC COMMIT LATE MSHR PREFETCHES: 0
LLC MPKI TOTAL: 15.9048 MSHR LATE: 0.088525 PQ LATE: 0 COMMIT LATE: 0 MISSED OPPORTUNITY: 0 UNCOVERED: 0
LLC PREFETCHES SAME FILL-ORIGIN LEVEL: 568043 DIFFERENT FILL-ORIGIN LEVEL: 0
LLC AVERAGE MISS LATENCY: 155.929 cycles
LLC AVERAGE MISS LATENCY LOAD: 152.303 cycles
LLC AVERAGE MISS LATENCY PREFETCH: 158.727 cycles
LLC AVERAGE MSHR OCCUPANCY: 1.95014
LLC MSHR FULL: 0
LLC RQ	ACCESS:    7035489	FORWARD:          0	MERGED:          0	TO_CACHE:    7035488
LLC WQ	ACCESS:     844079	FORWARD:          1	MERGED:          0	TO_CACHE:     844079
LLC PQ	ACCESS:    2964155	FORWARD:          0	MERGED:       5552	TO_CACHE:    2958603

LLC Dense regions hint to LLC: 0
56112c14a386: 1
56112c14a442: 1
56112c14a5c5: 1
14f7c93e657e: 1
14f7c93e65d0: 1
14f7c93e6477: 1
14f7c93bf913: 1
14f7c93c2a27: 1
14f7c93e65cc: 1
7ffc04bd1d75: 1
14f7c93e658f: 1
14f7c93e65c8: 1
14f7c93e65d4: 1
14f7c93c2c4f: 1
56112c14a32f: 1
14f7c93c2c61: 1
14f7c93c345d: 1
14f7c93c020e: 2
14f7c93c2d7f: 2
14f7c93c2c95: 2
14f7c93c2cf9: 2
14f7c93c2c45: 2
14f7c93e65c5: 3
14f7c93c2d67: 3
14f7c93c33a4: 3
14f7c93c0252: 3
14f7c93c2d3b: 4
14f7c93c344d: 4
14f7c93bff2b: 4
14f7c93c3457: 4
14f7c93e6650: 4
14f7c93c2c88: 4
14f7c93c021e: 5
14f7c93c339a: 5
14f7c93e6646: 5
14f7c93c012d: 6
14f7c93e6641: 7
14f7c93bfe6c: 7
14f7c93bf795: 7
14f7c93c338c: 7
14f7c93e664b: 8
14f7c93c024c: 8
14f7c93e66d3: 9
14f7c93c0106: 9
14f7c93c220e: 11
14f7c93e6672: 11
14f7c93c2ccc: 11
14f7c93bf896: 12
14f7c93c21f4: 13
14f7c93bff19: 14
14f7c93bf62d: 14
14f7c93c2e41: 14
14f7c93bf867: 15
14f7c93c2207: 15
14f7c93c015a: 15
14f7c93bff46: 16
14f7c93c331c: 16
14f7c93bfebb: 16
14f7c93c0135: 17
14f7c93c013f: 17
14f7c93c00ec: 17
14f7c93c2d4d: 18
14f7c93c2a12: 18
14f7c93c298d: 19
14f7c93bfe97: 20
14f7c93c2d43: 20
14f7c93c2c6b: 23
14f7c93bf5a7: 26
14f7c93bfeb2: 33
14f7c93c2cde: 33
14f7c93c2cb6: 34
14f7c93e663e: 35
14f7c93c2cd4: 39
14f7c93c010a: 41
56112c14a327: 42
14f7c93e66cf: 54
14f7c93bfef2: 55
14f7c93c00e6: 55
14f7c93e66cb: 56
14f7c93bfc11: 59
14f7c93c0174: 59
14f7c93e66c7: 62
14f7c93bff10: 66
56112c148580: 68
14f7c9d5c3f0: 68
14f7c93bf4f8: 71
14f7c93bf574: 73
14f7c93c0123: 74
56112c1485b0: 74
14f7c93e66f6: 77
14f7c93bff73: 78
14f7c93bf323: 78
14f7c93c2e55: 82
56112c148720: 84
14f7c93c2076: 85
14f7c9d5bb30: 86
14f7c93bf581: 86
56112c14a1e3: 88
14f7c93c20c1: 90
56112c14a2dc: 90
14f7c93bf58f: 91
14f7c93c20cf: 91
14f7c93c20e3: 91
14f7c93bfbf5: 93
14f7c93c2978: 93
14f7c93bf8f4: 98
14f7c93c207d: 98
14f7c93bf65b: 99
14f7c93c00f0: 101
14f7c93c2961: 106
14f7c93c20af: 106
14f7c93e667f: 110
14f7c93bf8e8: 114
14f7c93bfc15: 125
14f7c93bf60d: 146
14f7c93bf5f4: 154
14f7c93e66c4: 222
14f7c93c2d1a: 228
14f7c93e6682: 239
14f7c93e6686: 341
14f7c93e668a: 346
56112c14a1b8: 499
56112c14a2d8: 875
56112c14a1eb: 1549
14f7c93e6703: 2288
14f7c93e670a: 2679
14f7c93e6706: 2838
14f7c93e670e: 3167
56112c14a1d5: 4834
56112c14a1e7: 12024
56112c14a200: 48724
56112c14a226: 3095773

RAW hits: 67098
Loads Generated: 76764929
Loads sent to L1D: 76697828
Stores Generated: 2241349
Stores sent to L1D: 2241352
Major fault: 0 Minor fault: 36864
Allocated PAGES: 36864
Total Load insts: 93558104
Total Non-spec loads: 6493981
Percentage of speculative loads: 93.0589
L1D response latency: 83.2275 cycles
Load retirement latency: 170.915 cycles

------------------
Depth Distribution
------------------
depth 0: 8696321
depth 1: 2175388
depth 2: 296863
depth 3: 369659
depth 4: 443502
depth 5: 363738
depth 6: 67950
depth 7: 14662
depth 8: 4411
depth 9: 3011
depth 10: 496
depth 11: 1718
depth 12: 1043
depth 13: 181
depth 14: 1257
depth 15: 38
depth 16: 4
depth 17: 1
depth 18: 0
depth 19: 0
depth 20: 0
depth 21: 0
depth 22: 0
depth 23: 0
depth 24: 0
depth 25: 0
depth 26: 0
depth 27: 0
depth 28: 0
depth 29: 0
Total: 12440243
------------------
ST read accesses: 6579733
ST write accesses: 3767593
PT read accesses: 104213798
PT write accesses: 7716314
FILTER read accesses: 40126354
FILTER write accesses: 26967181
GHR read accesses: 32821017
GHR write accesses: 355524
PERC read accesses: 626935653
PERC write accesses: 32435149
GHR counter read accesses: 20694652
GHR counter write accesses: 14669335
GHR ip read accesses: 52069674
GHR ip write accesses: 41389304
ST tag read accesses: 5908483108
ST tag write accesses: 1004975814

DRAM Statistics
 CHANNEL 0
 RQ ROW_BUFFER_HIT:    1874987  ROW_BUFFER_MISS:    3817241
 DBUS_CONGESTED:       5353
 WQ ROW_BUFFER_HIT:     214946  ROW_BUFFER_MISS:     516252  FULL:          0

 AVG_CONGESTED_CYCLE: 4
 All warmup complete: 2
Channel 0 Bank busy for read cycles: 0
Channel 0 Bank busy for write cycles: 0
Channel 0
Rank 0
0banks busy for read cycles: 98132424
0banks busy for write cycles: 316145
1banks busy for read cycles: 152742209
1banks busy for write cycles: 52718032
2banks busy for read cycles: 91107296
2banks busy for write cycles: 23435545
3banks busy for read cycles: 50702730
3banks busy for write cycles: 9801901
4banks busy for read cycles: 23357961
4banks busy for write cycles: 4140021
5banks busy for read cycles: 9227432
5banks busy for write cycles: 1823128
6banks busy for read cycles: 3284611
6banks busy for write cycles: 877815
7banks busy for read cycles: 1271205
7banks busy for write cycles: 487961
8banks busy for read cycles: 1427881
8banks busy for write cycles: 463660

CPU 0 Branch Prediction Accuracy: 97.7638% MPKI: 3.32603 Average ROB Occupancy at Mispredict: 165.358
Branch types
NOT_BRANCH: 170252779 85.1264%
BRANCH_DIRECT_JUMP: 9217196 4.6086%
BRANCH_INDIRECT: 0 0%
BRANCH_CONDITIONAL: 20527371 10.2637%
BRANCH_DIRECT_CALL: 1324 0.000662%
BRANCH_INDIRECT_CALL: 0 0%
BRANCH_RETURN: 1324 0.000662%
BRANCH_OTHER: 0 0%

DRAM PAGES: 1048576
Allocated PAGES: 36864
