
*** ChampSim Multicore Out-of-Order Simulator ***

Warmup Instructions: 50000000
Simulation Instructions: 200000000
Number of CPUs: 1
LLC sets: 2048
LLC ways: 16
L0D sets: 16
L0D ways: 2
ROB size: 352
LQ size: 128
SQ size: 72
Secure Berti: OFF
Berti: OFF
Berti Fill: OFF
On commit prefetching: OFF
Hit-based filter: ON
Time-guarding: ON
Free-slotting: ON
Leap-frogging: ON
Train prefetcher on L0D bypass: OFF
No translation penalty for prefetchers: OFF
Prefetch to L0D only: OFF
Prefetch to L1D only: OFF
Clean evictions: ON
Commit loads: ON
Commit write: ON
Fill commit loads to L2C, LLC: ON
DRAM IO FREQUENCY: 6400
ROB SIZE: 352
Off-chip DRAM Size: 4096 MB Channels: 1 Width: 64-bit Data Rate: 6400 MT/s
CPU 0 runs /home/sumon/secure_berti/GhostMinion/../../traces/gap/bfs-8.trace.gz
.gz
BTB has LRU replacement policy
ITLB has LRU replacement policy
DTLB has LRU replacement policy
STLB has LRU replacement policy
L1I has LRU replacement policy
L0D has LRU replacement policy
CPU 0 L1D IP-based stride prefetcher
L1D has LRU replacement policy
L2C has LRU replacement policy
LLC has LRU replacement policy
Heartbeat CPU 0 instructions: 10000003 cycles: 2972528 heartbeat IPC: 3.36414 cumulative IPC: 3.36414 (Simulation time: 0 hr 0 min 19 sec) 
Heartbeat CPU 0 instructions: 20000001 cycles: 6185719 heartbeat IPC: 3.11217 cumulative IPC: 3.23325 (Simulation time: 0 hr 0 min 50 sec) 
Heartbeat CPU 0 instructions: 30000003 cycles: 9431505 heartbeat IPC: 3.08092 cumulative IPC: 3.18083 (Simulation time: 0 hr 1 min 22 sec) 
Heartbeat CPU 0 instructions: 40000003 cycles: 12681522 heartbeat IPC: 3.07691 cumulative IPC: 3.1542 (Simulation time: 0 hr 1 min 51 sec) 
Heartbeat CPU 0 instructions: 50000003 cycles: 15852444 heartbeat IPC: 3.15366 cumulative IPC: 3.15409 (Simulation time: 0 hr 2 min 13 sec) 

Warmup complete CPU 0 instructions: 50000003 cycles: 15852444 (Simulation time: 0 hr 2 min 13 sec) 

Heartbeat CPU 0 instructions: 60000000 cycles: 39045892 heartbeat IPC: 0.431156 cumulative IPC: 0.431156 (Simulation time: 0 hr 2 min 46 sec) 
Heartbeat CPU 0 instructions: 70000000 cycles: 58959082 heartbeat IPC: 0.50218 cumulative IPC: 0.463966 (Simulation time: 0 hr 3 min 15 sec) 
Heartbeat CPU 0 instructions: 80000001 cycles: 90582646 heartbeat IPC: 0.31622 cumulative IPC: 0.401444 (Simulation time: 0 hr 3 min 51 sec) 
Heartbeat CPU 0 instructions: 90000001 cycles: 132910029 heartbeat IPC: 0.236254 cumulative IPC: 0.341712 (Simulation time: 0 hr 4 min 31 sec) 
Heartbeat CPU 0 instructions: 100000000 cycles: 175261453 heartbeat IPC: 0.23612 cumulative IPC: 0.313659 (Simulation time: 0 hr 5 min 12 sec) 
Heartbeat CPU 0 instructions: 110000000 cycles: 217665727 heartbeat IPC: 0.235825 cumulative IPC: 0.297305 (Simulation time: 0 hr 5 min 49 sec) 
Heartbeat CPU 0 instructions: 120000001 cycles: 247858087 heartbeat IPC: 0.33121 cumulative IPC: 0.301717 (Simulation time: 0 hr 6 min 22 sec) 
Heartbeat CPU 0 instructions: 130000001 cycles: 263289739 heartbeat IPC: 0.648019 cumulative IPC: 0.323314 (Simulation time: 0 hr 6 min 48 sec) 
Heartbeat CPU 0 instructions: 140000000 cycles: 279404926 heartbeat IPC: 0.620533 cumulative IPC: 0.341488 (Simulation time: 0 hr 7 min 15 sec) 
Heartbeat CPU 0 instructions: 150000001 cycles: 305689747 heartbeat IPC: 0.380448 cumulative IPC: 0.345021 (Simulation time: 0 hr 7 min 46 sec) 
Heartbeat CPU 0 instructions: 160000000 cycles: 348311734 heartbeat IPC: 0.234621 cumulative IPC: 0.330868 (Simulation time: 0 hr 8 min 23 sec) 
Heartbeat CPU 0 instructions: 170000001 cycles: 390812443 heartbeat IPC: 0.23529 cumulative IPC: 0.320034 (Simulation time: 0 hr 8 min 59 sec) 
Heartbeat CPU 0 instructions: 180000000 cycles: 433944551 heartbeat IPC: 0.231846 cumulative IPC: 0.310936 (Simulation time: 0 hr 9 min 36 sec) 
Heartbeat CPU 0 instructions: 190000001 cycles: 482683991 heartbeat IPC: 0.205173 cumulative IPC: 0.299894 (Simulation time: 0 hr 10 min 13 sec) 
Heartbeat CPU 0 instructions: 200000000 cycles: 514940427 heartbeat IPC: 0.310016 cumulative IPC: 0.300548 (Simulation time: 0 hr 10 min 45 sec) 
Heartbeat CPU 0 instructions: 210000000 cycles: 530622698 heartbeat IPC: 0.637663 cumulative IPC: 0.310818 (Simulation time: 0 hr 11 min 10 sec) 
Heartbeat CPU 0 instructions: 220000000 cycles: 546819203 heartbeat IPC: 0.617417 cumulative IPC: 0.320171 (Simulation time: 0 hr 11 min 35 sec) 
Heartbeat CPU 0 instructions: 230000000 cycles: 573557212 heartbeat IPC: 0.373999 cumulative IPC: 0.322751 (Simulation time: 0 hr 12 min 7 sec) 
Heartbeat CPU 0 instructions: 240000001 cycles: 613781540 heartbeat IPC: 0.248606 cumulative IPC: 0.317763 (Simulation time: 0 hr 12 min 45 sec) 
Heartbeat CPU 0 instructions: 250000002 cycles: 654560300 heartbeat IPC: 0.245226 cumulative IPC: 0.313132 (Simulation time: 0 hr 13 min 30 sec) 
Finished CPU 0 instructions: 200000003 cycles: 638707857 cumulative IPC: 0.313132 (Simulation time: 0 hr 13 min 30 sec) 
 Instruction ID: 250000021

ChampSim completed all CPUs

Region of Interest Statistics

CPU 0 cumulative IPC: 0.313132 instructions: 200000003 cycles: 638707857
ITLB SPEC fills:          0  NON-SPEC fills:          0
ITLB Test counter :          0
ITLB Leapfrog:          0
ITLB MSHR merge:          0
ITLB TOTAL     ACCESS:   33976556  HIT:   33976556  MISS:          0  HIT %:        100  MISS %:          0   MPKI: 0
ITLB LOAD TRANSLATION NON_SPEC    ACCESS:   33976556  HIT:   33976556  MISS:          0  HIT %:        100  MISS %:          0   MPKI: 0
ITLB PREFETCH  REQUESTED:          0  ISSUED:          0  USEFUL:          0  USELESS:          0
ITLB USEFUL LOAD PREFETCHES:          0 PREFETCH ISSUED TO LOWER LEVEL:          0  ACCURACY: -nan
ITLB TIMELY PREFETCHES:          0 LATE PREFETCHES: 0 DROPPED PREFETCHES: 0
ITLB COMMIT LATE PREFETCHES: 0 MISSED OPPORTUNITY: 0 LATE IN PQ: 0 UNCOVERED: 0
ITLB COMMIT LATE MSHR PREFETCHES: 0
ITLB MPKI TOTAL: 0 MSHR LATE: 0 PQ LATE: 0 COMMIT LATE: 0 MISSED OPPORTUNITY: 0 UNCOVERED: 0
ITLB PREFETCHES SAME FILL-ORIGIN LEVEL: 0 DIFFERENT FILL-ORIGIN LEVEL: 0
ITLB AVERAGE MISS LATENCY: -nan cycles
ITLB AVERAGE MISS LATENCY LOAD: -nan cycles
ITLB AVERAGE MISS LATENCY PREFETCH: -nan cycles
ITLB AVERAGE MSHR OCCUPANCY: 0
ITLB MSHR FULL: 0
ITLB RQ	ACCESS:   42974747	FORWARD:          0	MERGED:    8998191	TO_CACHE:   33976556

DTLB SPEC fills:          0  NON-SPEC fills:          0
DTLB Test counter :          0
DTLB Leapfrog:          0
DTLB MSHR merge:          0
DTLB TOTAL     ACCESS:   44787465  HIT:   44518563  MISS:     268902  HIT %:    99.3996  MISS %:   0.600396   MPKI: 1.34451
DTLB LOAD TRANSLATION NON_SPEC    ACCESS:   44787465  HIT:   44518563  MISS:     268902  HIT %:    99.3996  MISS %:   0.600396   MPKI: 1.34451
DTLB PREFETCH  REQUESTED:          0  ISSUED:          0  USEFUL:          0  USELESS:          0
DTLB USEFUL LOAD PREFETCHES:          0 PREFETCH ISSUED TO LOWER LEVEL:          0  ACCURACY: -nan
DTLB TIMELY PREFETCHES:          0 LATE PREFETCHES: 0 DROPPED PREFETCHES: 0
DTLB COMMIT LATE PREFETCHES: 0 MISSED OPPORTUNITY: 0 LATE IN PQ: 0 UNCOVERED: 0
DTLB COMMIT LATE MSHR PREFETCHES: 0
DTLB MPKI TOTAL: 0 MSHR LATE: 0 PQ LATE: 0 COMMIT LATE: 0 MISSED OPPORTUNITY: 0 UNCOVERED: 0
DTLB PREFETCHES SAME FILL-ORIGIN LEVEL: 0 DIFFERENT FILL-ORIGIN LEVEL: 0
DTLB AVERAGE MISS LATENCY: 82.0098 cycles
DTLB AVERAGE MISS LATENCY LOAD: -nan cycles
DTLB AVERAGE MISS LATENCY PREFETCH: -nan cycles
DTLB AVERAGE MSHR OCCUPANCY: 0.0121115
DTLB MSHR FULL: 0
DTLB RQ	ACCESS:   47608941	FORWARD:          0	MERGED:    2790137	TO_CACHE:   44818804

STLB SPEC fills:          0  NON-SPEC fills:          0
STLB Test counter :          0
STLB Leapfrog:          0
STLB MSHR merge:          0
STLB TOTAL     ACCESS:    2918259  HIT:    2743359  MISS:     174900  HIT %:    94.0067  MISS %:     5.9933   MPKI: 0.8745
STLB LOAD TRANSLATION NON_SPEC    ACCESS:     268902  HIT:      94094  MISS:     174808  HIT %:    34.9919  MISS %:    65.0081   MPKI: 0.87404
STLB TRANSLATION FROM L1D PREFETCHER NON_SPEC    ACCESS:    2649357  HIT:    2649265  MISS:         92  HIT %:    99.9965  MISS %: 0.00347254   MPKI: 0.00046
STLB PREFETCH  REQUESTED:          0  ISSUED:          0  USEFUL:         53  USELESS:         39
STLB USEFUL LOAD PREFETCHES:         53 PREFETCH ISSUED TO LOWER LEVEL:          0  ACCURACY: inf
STLB TIMELY PREFETCHES:         53 LATE PREFETCHES: 0 DROPPED PREFETCHES: 0
STLB COMMIT LATE PREFETCHES: 0 MISSED OPPORTUNITY: 0 LATE IN PQ: 0 UNCOVERED: 0
STLB COMMIT LATE MSHR PREFETCHES: 0
STLB MPKI TOTAL: 0 MSHR LATE: 0 PQ LATE: 0 COMMIT LATE: 0 MISSED OPPORTUNITY: 0 UNCOVERED: 0
STLB PREFETCHES SAME FILL-ORIGIN LEVEL: 0 DIFFERENT FILL-ORIGIN LEVEL: 0
STLB AVERAGE MISS LATENCY: 112.299 cycles
STLB AVERAGE MISS LATENCY LOAD: -nan cycles
STLB AVERAGE MISS LATENCY PREFETCH: -nan cycles
STLB AVERAGE MSHR OCCUPANCY: 0.0182167
STLB MSHR FULL: 0
STLB RQ	ACCESS:    8437290	FORWARD:          0	MERGED:    5519031	TO_CACHE:    2918259

STLB Hit, L1D data hit: 0
STLB Hit, L2C data hit: 0
STLB Hit, LLC data hit: 0
STLB Hit, LLC data miss: 0
STLB STLB hints to L2: 0
L0D SPEC fills:   20792527  NON-SPEC fills:          0
L0D TimeGuard Request with older TS:      62581 Restricted eviction:      14248 read:        525
L0D Test counter :          0
L0D Leapfrog:          0
L0D MSHR merge:     356394
L0D TOTAL     ACCESS:   40143137  HIT:    3800128  MISS:   36343009  HIT %:    9.46645  MISS %:    90.5336   MPKI: 181.715
L0D LOAD      TOTAL       ACCESS:   40143137  HIT:    3800128  MISS:   36343009  HIT %:    9.46645  MISS %:    90.5336   MPKI: 181.715
L0D LOAD      NON_SPEC    ACCESS:   15536727  HIT:        493  MISS:   15536234  HIT %: 0.00317313  MISS %:    99.9968   MPKI: 77.6812
L0D LOAD      SPEC        ACCESS:   24606410  HIT:    3799635  MISS:   20806775  HIT %:    15.4416  MISS %:    84.5584   MPKI: 104.034
L0D PREFETCH  REQUESTED:          0  ISSUED:          0  USEFUL:          0  USELESS:          0
L0D USEFUL LOAD PREFETCHES:          0 PREFETCH ISSUED TO LOWER LEVEL:          0  ACCURACY: -nan
L0D TIMELY PREFETCHES:          0 LATE PREFETCHES: 0 DROPPED PREFETCHES: 0
L0D COMMIT LATE PREFETCHES: 0 MISSED OPPORTUNITY: 0 LATE IN PQ: 0 UNCOVERED: 0
L0D COMMIT LATE MSHR PREFETCHES: 0
L0D MPKI TOTAL: 183.497 MSHR LATE: 0 PQ LATE: 0 COMMIT LATE: 0 MISSED OPPORTUNITY: 0 UNCOVERED: 0
L0D PREFETCHES SAME FILL-ORIGIN LEVEL: 0 DIFFERENT FILL-ORIGIN LEVEL: 0
L0D AVERAGE MISS LATENCY: 11.3149 cycles
L0D AVERAGE MISS LATENCY LOAD: 11.3149 cycles
L0D AVERAGE MISS LATENCY PREFETCH: -nan cycles
L0D AVERAGE MSHR OCCUPANCY: 0.477817
L0D MSHR FULL: 0.00265164
L0D RQ	ACCESS:   48956272	FORWARD:          0	MERGED:    8456742	TO_CACHE:   40499530
L0D WQ	ACCESS:    7109411	FORWARD:          0	MERGED:          0	TO_CACHE:    7109411

L1D SPEC fills:          0  NON-SPEC fills:    1970819
L1D Test counter :          0
L1D Leapfrog:          0
L1D MSHR merge:      37699
L1D TOTAL     ACCESS:   50856157  HIT:   44027506  MISS:    6828651  HIT %:    86.5726  MISS %:    13.4274   MPKI: 34.1433
L1D LOAD      TOTAL       ACCESS:   36342274  HIT:   33298826  MISS:    3043448  HIT %:    91.6256  MISS %:     8.3744   MPKI: 15.2172
L1D LOAD      NON_SPEC    ACCESS:   15536003  HIT:   13565184  MISS:    1970819  HIT %:    87.3145  MISS %:    12.6855   MPKI: 9.85409
L1D LOAD      SPEC        ACCESS:   20806271  HIT:   19733642  MISS:    1072629  HIT %:    94.8447  MISS %:    5.15532   MPKI: 5.36314
L1D RFO       NON_SPEC    ACCESS:    5635965  HIT:    5404890  MISS:     231075  HIT %:       95.9  MISS %:    4.10001   MPKI: 1.15537
L1D PREFETCH  NON_SPEC    ACCESS:    7404227  HIT:    4923939  MISS:    2480288  HIT %:    66.5017  MISS %:    33.4983   MPKI: 12.4014
L1D COMMIT LOAD NON_SPEC    ACCESS:     403565  HIT:     396108  MISS:       7457  HIT %:    98.1522  MISS %:    1.84778   MPKI: 0.037285
L1D COMMIT WRITE NON_SPEC    ACCESS:    1070126  HIT:       3743  MISS:    1066383  HIT %:   0.349772  MISS %:    99.6502   MPKI: 5.33191
L1D PREFETCH  REQUESTED:    8944121  ISSUED:    8943849  USEFUL:    2120611  USELESS:     359613
L1D USEFUL LOAD PREFETCHES:    2120611 PREFETCH ISSUED TO LOWER LEVEL:    2522246  ACCURACY: 84.0763
L1D TIMELY PREFETCHES:    2120611 LATE PREFETCHES: 36964 DROPPED PREFETCHES: 0
L1D COMMIT LATE PREFETCHES: 0 MISSED OPPORTUNITY: 0 LATE IN PQ: 0 UNCOVERED: 0
L1D COMMIT LATE MSHR PREFETCHES: 0
L1D MPKI TOTAL: 15.2209 MSHR LATE: 0.18482 PQ LATE: 0 COMMIT LATE: 0 MISSED OPPORTUNITY: 0 UNCOVERED: 0
L1D PREFETCHES SAME FILL-ORIGIN LEVEL: 2517253 DIFFERENT FILL-ORIGIN LEVEL: 4993
L1D AVERAGE MISS LATENCY: 102.109 cycles
L1D AVERAGE MISS LATENCY LOAD: 74.4633 cycles
L1D AVERAGE MISS LATENCY PREFETCH: 174.345 cycles
L1D AVERAGE MSHR OCCUPANCY: 0.832652
L1D MSHR FULL: 0.00555855
L1D RQ	ACCESS:   36947656	FORWARD:          0	MERGED:     198494	TO_CACHE:   36746707
L1D WQ	ACCESS:    8146967	FORWARD:       2455	MERGED:      92119	TO_CACHE:    8054848
L1D PQ	ACCESS:    8943849	FORWARD:          0	MERGED:     775461	TO_CACHE:    8168388

L1D UNIQUE REGIONS ACCESSED: 0
L1D REGIONS CONFLICTS: 0
L1D Cross Page Prefetch Requests: 0
L1D Same Page Prefetch Requests: 11100778
L1D ROI Sum of L1D PQ occupancy: 109620431
L1D PREFETCHES PUSHED FROM L2C: 0
L1I SPEC fills:          0  NON-SPEC fills:          0
L1I Test counter :          0
L1I Leapfrog:          0
L1I MSHR merge:          3
L1I TOTAL     ACCESS:   42974744  HIT:   42974731  MISS:         13  HIT %:        100  MISS %: 3.02503e-05   MPKI: 6.5e-05
L1I LOAD      TOTAL       ACCESS:   42974744  HIT:   42974731  MISS:         13  HIT %:        100  MISS %: 3.02503e-05   MPKI: 6.5e-05
L1I LOAD      NON_SPEC    ACCESS:   42974744  HIT:   42974731  MISS:         13  HIT %:        100  MISS %: 3.02503e-05   MPKI: 6.5e-05
L1I PREFETCH  REQUESTED:          0  ISSUED:          0  USEFUL:          0  USELESS:          0
L1I USEFUL LOAD PREFETCHES:          0 PREFETCH ISSUED TO LOWER LEVEL:          0  ACCURACY: -nan
L1I TIMELY PREFETCHES:          0 LATE PREFETCHES: 0 DROPPED PREFETCHES: 0
L1I COMMIT LATE PREFETCHES: 0 MISSED OPPORTUNITY: 0 LATE IN PQ: 0 UNCOVERED: 0
L1I COMMIT LATE MSHR PREFETCHES: 0
L1I MPKI TOTAL: 8e-05 MSHR LATE: 0 PQ LATE: 0 COMMIT LATE: 0 MISSED OPPORTUNITY: 0 UNCOVERED: 0
L1I PREFETCHES SAME FILL-ORIGIN LEVEL: 0 DIFFERENT FILL-ORIGIN LEVEL: 0
L1I AVERAGE MISS LATENCY: 190.923 cycles
L1I AVERAGE MISS LATENCY LOAD: 190.923 cycles
L1I AVERAGE MISS LATENCY PREFETCH: -nan cycles
L1I AVERAGE MSHR OCCUPANCY: 2.09425e-07
L1I MSHR FULL: 0
L1I RQ	ACCESS:   65155646	FORWARD:          0	MERGED:   22180899	TO_CACHE:   42974747

BTB SPEC fills:          0  NON-SPEC fills:          0
BTB Test counter :          0
BTB Leapfrog:          0
BTB MSHR merge:          0
BTB TOTAL     ACCESS:   40501976  HIT:   40501622  MISS:        354  HIT %:    99.9991  MISS %: 0.000874031   MPKI: 0.00177
BTB BRANCH_DIRECT_JUMP	ACCESS:      40166  HIT:      40120  MISS:         46
BTB BRANCH_INDIRECT	ACCESS:          3  HIT:          2  MISS:          1
BTB BRANCH_CONDITIONAL	ACCESS:   40461166  HIT:   40461063  MISS:        103
BTB BRANCH_DIRECT_CALL	ACCESS:        311  HIT:        267  MISS:         44
BTB BRANCH_INDIRECT_CALL	ACCESS:          9  HIT:          6  MISS:          3
BTB BRANCH_RETURN	ACCESS:        321  HIT:        164  MISS:        157
BTB BRANCH_OTHER ACCESS:          0  HIT:          0  MISS:          0

L2C SPEC fills:          0  NON-SPEC fills:     823939
L2C Test counter :          0
L2C Leapfrog:          0
L2C MSHR merge:        823
L2C TOTAL     ACCESS:    7709261  HIT:    3205220  MISS:    4504041  HIT %:    41.5762  MISS %:    58.4238   MPKI: 22.5202
L2C LOAD      TOTAL       ACCESS:    3006468  HIT:    1713152  MISS:    1293316  HIT %:    56.9822  MISS %:    43.0178   MPKI: 6.46658
L2C LOAD      NON_SPEC    ACCESS:    1957283  HIT:    1133331  MISS:     823952  HIT %:    57.9033  MISS %:    42.0967   MPKI: 4.11976
L2C LOAD      SPEC        ACCESS:    1049185  HIT:     579821  MISS:     469364  HIT %:    55.2639  MISS %:    44.7361   MPKI: 2.34682
L2C RFO       NON_SPEC    ACCESS:     231075  HIT:       8415  MISS:     222660  HIT %:    3.64167  MISS %:    96.3583   MPKI: 1.1133
L2C PREFETCH  NON_SPEC    ACCESS:    2520958  HIT:      33278  MISS:    2487680  HIT %:    1.32005  MISS %:    98.6799   MPKI: 12.4384
L2C WRITEBACK NON_SPEC    ACCESS:     574229  HIT:     574224  MISS:          5  HIT %:    99.9991  MISS %: 0.000870733   MPKI: 2.5e-05
L2C CLEAN_EVICTION NON_SPEC    ACCESS:     494574  HIT:      28682  MISS:     465892  HIT %:    5.79933  MISS %:    94.2007   MPKI: 2.32946
L2C COMMIT LOAD NON_SPEC    ACCESS:       7457  HIT:       4083  MISS:       3374  HIT %:    54.7539  MISS %:    45.2461   MPKI: 0.01687
L2C LOAD TRANSLATION NON_SPEC    ACCESS:     874040  HIT:     842996  MISS:      31044  HIT %:    96.4482  MISS %:    3.55178   MPKI: 0.15522
L2C TRANSLATION FROM L1D PREFETCHER NON_SPEC    ACCESS:        460  HIT:        390  MISS:         70  HIT %:    84.7826  MISS %:    15.2174   MPKI: 0.00035
L2C PREFETCH  REQUESTED:          0  ISSUED:          0  USEFUL:       6990  USELESS:    2481720
L2C USEFUL LOAD PREFETCHES:       6990 PREFETCH ISSUED TO LOWER LEVEL:    2488517  ACCURACY: 0.28089
L2C TIMELY PREFETCHES:       6990 LATE PREFETCHES: 836 DROPPED PREFETCHES: 0
L2C COMMIT LATE PREFETCHES: 0 MISSED OPPORTUNITY: 0 LATE IN PQ: 0 UNCOVERED: 0
L2C COMMIT LATE MSHR PREFETCHES: 0
L2C MPKI TOTAL: 6.46658 MSHR LATE: 0.00418 PQ LATE: 0 COMMIT LATE: 0 MISSED OPPORTUNITY: 0 UNCOVERED: 0
L2C PREFETCHES SAME FILL-ORIGIN LEVEL: 2906 DIFFERENT FILL-ORIGIN LEVEL: 0
L2C AVERAGE MISS LATENCY: 138.615 cycles
L2C AVERAGE MISS LATENCY LOAD: 140.44 cycles
L2C AVERAGE MISS LATENCY PREFETCH: 161.479 cycles
L2C AVERAGE MSHR OCCUPANCY: 0.799672
L2C MSHR FULL: 0
L2C RQ	ACCESS:    4119529	FORWARD:          0	MERGED:          0	TO_CACHE:    4119500
L2C WQ	ACCESS:    1068803	FORWARD:         29	MERGED:          0	TO_CACHE:    1068803
L2C PQ	ACCESS:    2522246	FORWARD:          0	MERGED:          6	TO_CACHE:    2522240

L2C Instructions Evicting Data 13
L2C Translations Evicting Data 30898
L2C Data Evicting Data 3511908
L2C Instructions Evicting Instructions 0
L2C Translations Evicting Instructions 1
L2C Data Evicting Instructions 10
L2C Instructions Evicting Translations 0
L2C Translations Evicting Translations 215
L2C Data Evicting Translations 25735
L2C Dense regions hint from L2: 0
PSCL5 SPEC fills:          0  NON-SPEC fills:          0
PSCL5 Test counter :          0
PSCL5 Leapfrog:          0
PSCL5 MSHR merge:          0
PSCL5 TOTAL     ACCESS:          0  HIT:          0  MISS:          0  HIT %:       -nan  MISS %:       -nan   MPKI: 0
PSCL5 PREFETCH  REQUESTED:          0  ISSUED:          0  USEFUL:          0  USELESS:          0
PSCL5 USEFUL LOAD PREFETCHES:          0 PREFETCH ISSUED TO LOWER LEVEL:          0  ACCURACY: -nan
PSCL5 TIMELY PREFETCHES:          0 LATE PREFETCHES: 0 DROPPED PREFETCHES: 0
PSCL5 COMMIT LATE PREFETCHES: 0 MISSED OPPORTUNITY: 0 LATE IN PQ: 0 UNCOVERED: 0
PSCL5 COMMIT LATE MSHR PREFETCHES: 0
PSCL5 MPKI TOTAL: 0 MSHR LATE: 0 PQ LATE: 0 COMMIT LATE: 0 MISSED OPPORTUNITY: 0 UNCOVERED: 0
PSCL5 PREFETCHES SAME FILL-ORIGIN LEVEL: 0 DIFFERENT FILL-ORIGIN LEVEL: 0

PSCL4 SPEC fills:          0  NON-SPEC fills:          0
PSCL4 Test counter :          0
PSCL4 Leapfrog:          0
PSCL4 MSHR merge:          0
PSCL4 TOTAL     ACCESS:          0  HIT:          0  MISS:          0  HIT %:       -nan  MISS %:       -nan   MPKI: 0
PSCL4 PREFETCH  REQUESTED:          0  ISSUED:          0  USEFUL:          0  USELESS:          0
PSCL4 USEFUL LOAD PREFETCHES:          0 PREFETCH ISSUED TO LOWER LEVEL:          0  ACCURACY: -nan
PSCL4 TIMELY PREFETCHES:          0 LATE PREFETCHES: 0 DROPPED PREFETCHES: 0
PSCL4 COMMIT LATE PREFETCHES: 0 MISSED OPPORTUNITY: 0 LATE IN PQ: 0 UNCOVERED: 0
PSCL4 COMMIT LATE MSHR PREFETCHES: 0
PSCL4 MPKI TOTAL: 0 MSHR LATE: 0 PQ LATE: 0 COMMIT LATE: 0 MISSED OPPORTUNITY: 0 UNCOVERED: 0
PSCL4 PREFETCHES SAME FILL-ORIGIN LEVEL: 0 DIFFERENT FILL-ORIGIN LEVEL: 0

PSCL3 SPEC fills:          0  NON-SPEC fills:          0
PSCL3 Test counter :          0
PSCL3 Leapfrog:          0
PSCL3 MSHR merge:          0
PSCL3 TOTAL     ACCESS:          0  HIT:          0  MISS:          0  HIT %:       -nan  MISS %:       -nan   MPKI: 0
PSCL3 PREFETCH  REQUESTED:          0  ISSUED:          0  USEFUL:          0  USELESS:          0
PSCL3 USEFUL LOAD PREFETCHES:          0 PREFETCH ISSUED TO LOWER LEVEL:          0  ACCURACY: -nan
PSCL3 TIMELY PREFETCHES:          0 LATE PREFETCHES: 0 DROPPED PREFETCHES: 0
PSCL3 COMMIT LATE PREFETCHES: 0 MISSED OPPORTUNITY: 0 LATE IN PQ: 0 UNCOVERED: 0
PSCL3 COMMIT LATE MSHR PREFETCHES: 0
PSCL3 MPKI TOTAL: 0 MSHR LATE: 0 PQ LATE: 0 COMMIT LATE: 0 MISSED OPPORTUNITY: 0 UNCOVERED: 0
PSCL3 PREFETCHES SAME FILL-ORIGIN LEVEL: 0 DIFFERENT FILL-ORIGIN LEVEL: 0

PSCL2 SPEC fills:          0  NON-SPEC fills:          0
PSCL2 Test counter :          0
PSCL2 Leapfrog:          0
PSCL2 MSHR merge:          0
PSCL2 TOTAL     ACCESS:          0  HIT:          0  MISS:          0  HIT %:       -nan  MISS %:       -nan   MPKI: 0
PSCL2 PREFETCH  REQUESTED:          0  ISSUED:          0  USEFUL:          0  USELESS:          0
PSCL2 USEFUL LOAD PREFETCHES:          0 PREFETCH ISSUED TO LOWER LEVEL:          0  ACCURACY: -nan
PSCL2 TIMELY PREFETCHES:          0 LATE PREFETCHES: 0 DROPPED PREFETCHES: 0
PSCL2 COMMIT LATE PREFETCHES: 0 MISSED OPPORTUNITY: 0 LATE IN PQ: 0 UNCOVERED: 0
PSCL2 COMMIT LATE MSHR PREFETCHES: 0
PSCL2 MPKI TOTAL: 0 MSHR LATE: 0 PQ LATE: 0 COMMIT LATE: 0 MISSED OPPORTUNITY: 0 UNCOVERED: 0
PSCL2 PREFETCHES SAME FILL-ORIGIN LEVEL: 0 DIFFERENT FILL-ORIGIN LEVEL: 0

LLC SPEC fills:          0  NON-SPEC fills:     668109
LLC Test counter :          0
LLC Leapfrog:          0
LLC MSHR merge:          0
LLC TOTAL     ACCESS:    5078925  HIT:     901405  MISS:    4177520  HIT %:    17.7479  MISS %:    82.2521   MPKI: 20.8876
LLC LOAD      TOTAL       ACCESS:    1292488  HIT:     239604  MISS:    1052884  HIT %:    18.5382  MISS %:    81.4618   MPKI: 5.26442
LLC LOAD      NON_SPEC    ACCESS:     823941  HIT:     155819  MISS:     668122  HIT %:    18.9114  MISS %:    81.0886   MPKI: 3.34061
LLC LOAD      SPEC        ACCESS:     468547  HIT:      83785  MISS:     384762  HIT %:    17.8819  MISS %:    82.1181   MPKI: 1.92381
LLC RFO       NON_SPEC    ACCESS:     222660  HIT:       5034  MISS:     217626  HIT %:    2.26085  MISS %:    97.7392   MPKI: 1.08813
LLC PREFETCH  NON_SPEC    ACCESS:    2488515  HIT:      14495  MISS:    2474020  HIT %:   0.582476  MISS %:    99.4175   MPKI: 12.3701
LLC WRITEBACK NON_SPEC    ACCESS:     549504  HIT:     547717  MISS:       1787  HIT %:    99.6748  MISS %:   0.325202   MPKI: 0.008935
LLC CLEAN_EVICTION NON_SPEC    ACCESS:     491284  HIT:      92743  MISS:     398541  HIT %:    18.8777  MISS %:    81.1223   MPKI: 1.9927
LLC COMMIT LOAD NON_SPEC    ACCESS:       3360  HIT:        960  MISS:       2400  HIT %:    28.5714  MISS %:    71.4286   MPKI: 0.012
LLC LOAD TRANSLATION NON_SPEC    ACCESS:      31044  HIT:        809  MISS:      30235  HIT %:    2.60598  MISS %:     97.394   MPKI: 0.151175
LLC TRANSLATION FROM L1D PREFETCHER NON_SPEC    ACCESS:         70  HIT:         43  MISS:         27  HIT %:    61.4286  MISS %:    38.5714   MPKI: 0.000135
LLC PREFETCH  REQUESTED:          0  ISSUED:          0  USEFUL:       4986  USELESS:    2472008
LLC USEFUL LOAD PREFETCHES:       4986 PREFETCH ISSUED TO LOWER LEVEL:    2474021  ACCURACY: 0.201534
LLC TIMELY PREFETCHES:       4986 LATE PREFETCHES: 0 DROPPED PREFETCHES: 0
LLC COMMIT LATE PREFETCHES: 0 MISSED OPPORTUNITY: 0 LATE IN PQ: 0 UNCOVERED: 0
LLC COMMIT LATE MSHR PREFETCHES: 0
LLC MPKI TOTAL: 5.26442 MSHR LATE: 0 PQ LATE: 0 COMMIT LATE: 0 MISSED OPPORTUNITY: 0 UNCOVERED: 0
LLC PREFETCHES SAME FILL-ORIGIN LEVEL: 0 DIFFERENT FILL-ORIGIN LEVEL: 0
LLC AVERAGE MISS LATENCY: 121.464 cycles
LLC AVERAGE MISS LATENCY LOAD: 139.65 cycles
LLC AVERAGE MISS LATENCY PREFETCH: 132.222 cycles
LLC AVERAGE MSHR OCCUPANCY: 0.743909
LLC MSHR FULL: 0
LLC RQ	ACCESS:    1549628	FORWARD:          0	MERGED:          0	TO_CACHE:    1549622
LLC WQ	ACCESS:    1040788	FORWARD:          7	MERGED:          0	TO_CACHE:    1040788
LLC PQ	ACCESS:    2488517	FORWARD:          0	MERGED:          0	TO_CACHE:    2488516

LLC Dense regions hint to LLC: 0

RAW hits: 191871
Loads Generated: 49148143
Loads sent to L1D: 48956272
Stores Generated: 7109412
Stores sent to L1D: 7109411
Major fault: 0 Minor fault: 27368
Allocated PAGES: 27368
Total Load insts: 61485474
Total Non-spec loads: 15816424
Percentage of speculative loads: 74.2762

LeapFrogging counter: 39831
Commit hits: 20765995 miss: 12653427
Commit hit %: 62.1375 miss %: 37.8625
Commits not translated: 0
Loads retired: 3043448
Stores retired: 7109411
Cache fills: 3043448
L1D response latency: 74.4633 cycles
Load retirement latency: 104.063 cycles
OOO test counter: 0
Discarded buffer inserts: 20765995 hits: 14529 hit %: 0.0699653
Filter prediction accuracy: 99.9895
Speculative prefetch buffer size: 0
CPU 0 L1D PC-based stride prefetcher final stats
Degree: 3

DRAM Statistics
 CHANNEL 0
 RQ ROW_BUFFER_HIT:    1515557  ROW_BUFFER_MISS:    2261614
 DBUS_CONGESTED:       6811
 WQ ROW_BUFFER_HIT:     311375  ROW_BUFFER_MISS:     653995  FULL:        840

 AVG_CONGESTED_CYCLE: 4
 All warmup complete: 2
Channel 0 Bank busy for read cycles: 0
Channel 0 Bank busy for write cycles: 0
Channel 0
Rank 0
0banks busy for read cycles: 244767111
0banks busy for write cycles: 402476
1banks busy for read cycles: 204483334
1banks busy for write cycles: 63008918
2banks busy for read cycles: 56038212
2banks busy for write cycles: 21298878
3banks busy for read cycles: 12850308
3banks busy for write cycles: 7473812
4banks busy for read cycles: 10563948
4banks busy for write cycles: 2971743
5banks busy for read cycles: 2388362
5banks busy for write cycles: 1550349
6banks busy for read cycles: 545999
6banks busy for write cycles: 1271128
7banks busy for read cycles: 193567
7banks busy for write cycles: 1914915
8banks busy for read cycles: 162938
8banks busy for write cycles: 6821860

CPU 0 Branch Prediction Accuracy: 86.5484% MPKI: 28.7876 Average ROB Occupancy at Mispredict: 7.98203
Branch types
NOT_BRANCH: 157198299 78.5991%
BRANCH_DIRECT_JUMP: 40166 0.020083%
BRANCH_INDIRECT: 3 1.5e-06%
BRANCH_CONDITIONAL: 42760831 21.3804%
BRANCH_DIRECT_CALL: 311 0.0001555%
BRANCH_INDIRECT_CALL: 9 4.5e-06%
BRANCH_RETURN: 321 0.0001605%
BRANCH_OTHER: 0 0%

DRAM PAGES: 1048576
Allocated PAGES: 27368
