
*** ChampSim Multicore Out-of-Order Simulator ***

Warmup Instructions: 50000000
Simulation Instructions: 200000000
Number of CPUs: 1
LLC sets: 2048
LLC ways: 16
L0D sets: 16
L0D ways: 2
ROB size: 352
LQ size: 128
SQ size: 72
Secure Berti: OFF
Berti: OFF
Berti Fill: OFF
On commit prefetching: OFF
Hit-based filter: ON
Time-guarding: ON
Free-slotting: ON
Leap-frogging: ON
Train prefetcher on L0D bypass: OFF
No translation penalty for prefetchers: OFF
Prefetch to L0D only: OFF
Prefetch to L1D only: OFF
Clean evictions: ON
Commit loads: ON
Commit write: ON
Fill commit loads to L2C, LLC: ON
DRAM IO FREQUENCY: 6400
ROB SIZE: 352
Off-chip DRAM Size: 4096 MB Channels: 1 Width: 64-bit Data Rate: 6400 MT/s
CPU 0 runs /home/sumon/secure_berti/GhostMinion/../../traces/gap/pr-14.trace.gz
.gz
BTB has LRU replacement policy
ITLB has LRU replacement policy
DTLB has LRU replacement policy
STLB has LRU replacement policy
L1I has LRU replacement policy
L0D has LRU replacement policy
CPU 0 L1D IP-based stride prefetcher
L1D has LRU replacement policy
L2C has LRU replacement policy
LLC has LRU replacement policy
Heartbeat CPU 0 instructions: 10000001 cycles: 3333819 heartbeat IPC: 2.99956 cumulative IPC: 2.99956 (Simulation time: 0 hr 0 min 22 sec) 
Heartbeat CPU 0 instructions: 20000001 cycles: 17831323 heartbeat IPC: 0.689774 cumulative IPC: 1.12162 (Simulation time: 0 hr 1 min 9 sec) 
Heartbeat CPU 0 instructions: 30000003 cycles: 34347193 heartbeat IPC: 0.605478 cumulative IPC: 0.873434 (Simulation time: 0 hr 2 min 7 sec) 
Heartbeat CPU 0 instructions: 40000003 cycles: 50850131 heartbeat IPC: 0.605953 cumulative IPC: 0.786625 (Simulation time: 0 hr 3 min 7 sec) 
Heartbeat CPU 0 instructions: 50000000 cycles: 67343940 heartbeat IPC: 0.606288 cumulative IPC: 0.742457 (Simulation time: 0 hr 4 min 7 sec) 

Warmup complete CPU 0 instructions: 50000004 cycles: 67343947 (Simulation time: 0 hr 4 min 7 sec) 

Heartbeat CPU 0 instructions: 60000000 cycles: 245540424 heartbeat IPC: 0.0561178 cumulative IPC: 0.0561178 (Simulation time: 0 hr 6 min 43 sec) 
Heartbeat CPU 0 instructions: 70000000 cycles: 424020336 heartbeat IPC: 0.0560287 cumulative IPC: 0.0560732 (Simulation time: 0 hr 9 min 9 sec) 
Heartbeat CPU 0 instructions: 80000001 cycles: 602590140 heartbeat IPC: 0.0560005 cumulative IPC: 0.056049 (Simulation time: 0 hr 11 min 30 sec) 
Heartbeat CPU 0 instructions: 90000000 cycles: 781183367 heartbeat IPC: 0.0559932 cumulative IPC: 0.056035 (Simulation time: 0 hr 13 min 49 sec) 
Heartbeat CPU 0 instructions: 100000001 cycles: 959470688 heartbeat IPC: 0.0560892 cumulative IPC: 0.0560458 (Simulation time: 0 hr 16 min 1 sec) 
Heartbeat CPU 0 instructions: 110000000 cycles: 1138142043 heartbeat IPC: 0.0559687 cumulative IPC: 0.056033 (Simulation time: 0 hr 18 min 8 sec) 
Heartbeat CPU 0 instructions: 120000001 cycles: 1316453183 heartbeat IPC: 0.0560817 cumulative IPC: 0.0560399 (Simulation time: 0 hr 20 min 7 sec) 
Heartbeat CPU 0 instructions: 130000000 cycles: 1493794285 heartbeat IPC: 0.0563885 cumulative IPC: 0.0560833 (Simulation time: 0 hr 22 min 4 sec) 
Heartbeat CPU 0 instructions: 140000002 cycles: 1672563875 heartbeat IPC: 0.0559379 cumulative IPC: 0.0560671 (Simulation time: 0 hr 24 min 1 sec) 
Heartbeat CPU 0 instructions: 150000001 cycles: 1851064116 heartbeat IPC: 0.0560223 cumulative IPC: 0.0560626 (Simulation time: 0 hr 25 min 59 sec) 
Heartbeat CPU 0 instructions: 160000001 cycles: 2029665067 heartbeat IPC: 0.0559907 cumulative IPC: 0.0560561 (Simulation time: 0 hr 27 min 55 sec) 
Heartbeat CPU 0 instructions: 170000003 cycles: 2207030676 heartbeat IPC: 0.0563807 cumulative IPC: 0.056083 (Simulation time: 0 hr 29 min 51 sec) 
Heartbeat CPU 0 instructions: 180000001 cycles: 2384934824 heartbeat IPC: 0.05621 cumulative IPC: 0.0560927 (Simulation time: 0 hr 31 min 46 sec) 
Heartbeat CPU 0 instructions: 190000000 cycles: 2514518890 heartbeat IPC: 0.07717 cumulative IPC: 0.0572088 (Simulation time: 0 hr 33 min 16 sec) 
Heartbeat CPU 0 instructions: 200000002 cycles: 2555094957 heartbeat IPC: 0.246451 cumulative IPC: 0.0602954 (Simulation time: 0 hr 34 min 0 sec) 
Heartbeat CPU 0 instructions: 210000001 cycles: 2733647524 heartbeat IPC: 0.0560059 cumulative IPC: 0.0600082 (Simulation time: 0 hr 35 min 54 sec) 
Heartbeat CPU 0 instructions: 220000000 cycles: 2912393765 heartbeat IPC: 0.0559452 cumulative IPC: 0.0597529 (Simulation time: 0 hr 37 min 49 sec) 
Heartbeat CPU 0 instructions: 230000000 cycles: 3090986119 heartbeat IPC: 0.0559934 cumulative IPC: 0.0595309 (Simulation time: 0 hr 39 min 42 sec) 
Heartbeat CPU 0 instructions: 240000002 cycles: 3269119914 heartbeat IPC: 0.0561376 cumulative IPC: 0.0593421 (Simulation time: 0 hr 41 min 34 sec) 
Heartbeat CPU 0 instructions: 250000003 cycles: 3447315803 heartbeat IPC: 0.056118 cumulative IPC: 0.0591721 (Simulation time: 0 hr 43 min 27 sec) 
Finished CPU 0 instructions: 200000000 cycles: 3379971857 cumulative IPC: 0.0591721 (Simulation time: 0 hr 43 min 27 sec) 
 Instruction ID: 250000385

ChampSim completed all CPUs

Region of Interest Statistics

CPU 0 cumulative IPC: 0.0591721 instructions: 200000000 cycles: 3379971857
ITLB SPEC fills:          0  NON-SPEC fills:          0
ITLB Test counter :          0
ITLB Leapfrog:          0
ITLB MSHR merge:          0
ITLB TOTAL     ACCESS:   58731099  HIT:   58731099  MISS:          0  HIT %:        100  MISS %:          0   MPKI: 0
ITLB LOAD TRANSLATION NON_SPEC    ACCESS:   58731099  HIT:   58731099  MISS:          0  HIT %:        100  MISS %:          0   MPKI: 0
ITLB PREFETCH  REQUESTED:          0  ISSUED:          0  USEFUL:          0  USELESS:          0
ITLB USEFUL LOAD PREFETCHES:          0 PREFETCH ISSUED TO LOWER LEVEL:          0  ACCURACY: -nan
ITLB TIMELY PREFETCHES:          0 LATE PREFETCHES: 0 DROPPED PREFETCHES: 0
ITLB COMMIT LATE PREFETCHES: 0 MISSED OPPORTUNITY: 0 LATE IN PQ: 0 UNCOVERED: 0
ITLB COMMIT LATE MSHR PREFETCHES: 0
ITLB MPKI TOTAL: 0 MSHR LATE: 0 PQ LATE: 0 COMMIT LATE: 0 MISSED OPPORTUNITY: 0 UNCOVERED: 0
ITLB PREFETCHES SAME FILL-ORIGIN LEVEL: 0 DIFFERENT FILL-ORIGIN LEVEL: 0
ITLB AVERAGE MISS LATENCY: -nan cycles
ITLB AVERAGE MISS LATENCY LOAD: -nan cycles
ITLB AVERAGE MISS LATENCY PREFETCH: -nan cycles
ITLB AVERAGE MSHR OCCUPANCY: 0
ITLB MSHR FULL: 0
ITLB RQ	ACCESS:   59859107	FORWARD:          0	MERGED:    1128007	TO_CACHE:   58731100

DTLB SPEC fills:          0  NON-SPEC fills:          0
DTLB Test counter :          0
DTLB Leapfrog:          0
DTLB MSHR merge:          0
DTLB TOTAL     ACCESS:   71442127  HIT:   48444701  MISS:   22997426  HIT %:    67.8097  MISS %:    32.1903   MPKI: 114.987
DTLB LOAD TRANSLATION NON_SPEC    ACCESS:   71442127  HIT:   48444701  MISS:   22997426  HIT %:    67.8097  MISS %:    32.1903   MPKI: 114.987
DTLB PREFETCH  REQUESTED:          0  ISSUED:          0  USEFUL:          0  USELESS:          0
DTLB USEFUL LOAD PREFETCHES:          0 PREFETCH ISSUED TO LOWER LEVEL:          0  ACCURACY: -nan
DTLB TIMELY PREFETCHES:          0 LATE PREFETCHES: 0 DROPPED PREFETCHES: 0
DTLB COMMIT LATE PREFETCHES: 0 MISSED OPPORTUNITY: 0 LATE IN PQ: 0 UNCOVERED: 0
DTLB COMMIT LATE MSHR PREFETCHES: 0
DTLB MPKI TOTAL: 0 MSHR LATE: 0 PQ LATE: 0 COMMIT LATE: 0 MISSED OPPORTUNITY: 0 UNCOVERED: 0
DTLB PREFETCHES SAME FILL-ORIGIN LEVEL: 0 DIFFERENT FILL-ORIGIN LEVEL: 0
DTLB AVERAGE MISS LATENCY: 9.29055 cycles
DTLB AVERAGE MISS LATENCY LOAD: -nan cycles
DTLB AVERAGE MISS LATENCY PREFETCH: -nan cycles
DTLB AVERAGE MSHR OCCUPANCY: 0.196187
DTLB MSHR FULL: 0
DTLB RQ	ACCESS:   72283337	FORWARD:          0	MERGED:     831890	TO_CACHE:   71451447

STLB SPEC fills:          0  NON-SPEC fills:          0
STLB Test counter :          0
STLB Leapfrog:          0
STLB MSHR merge:          0
STLB TOTAL     ACCESS:   26161959  HIT:   26121141  MISS:      40818  HIT %:     99.844  MISS %:    0.15602   MPKI: 0.20409
STLB LOAD TRANSLATION NON_SPEC    ACCESS:   22997425  HIT:   22956607  MISS:      40818  HIT %:    99.8225  MISS %:   0.177489   MPKI: 0.20409
STLB TRANSLATION FROM L1D PREFETCHER NON_SPEC    ACCESS:    3164534  HIT:    3164534  MISS:          0  HIT %:        100  MISS %:          0   MPKI: 0
STLB PREFETCH  REQUESTED:          0  ISSUED:          0  USEFUL:          0  USELESS:          0
STLB USEFUL LOAD PREFETCHES:          0 PREFETCH ISSUED TO LOWER LEVEL:          0  ACCURACY: -nan
STLB TIMELY PREFETCHES:          0 LATE PREFETCHES: 0 DROPPED PREFETCHES: 0
STLB COMMIT LATE PREFETCHES: 0 MISSED OPPORTUNITY: 0 LATE IN PQ: 0 UNCOVERED: 0
STLB COMMIT LATE MSHR PREFETCHES: 0
STLB MPKI TOTAL: 0 MSHR LATE: 0 PQ LATE: 0 COMMIT LATE: 0 MISSED OPPORTUNITY: 0 UNCOVERED: 0
STLB PREFETCHES SAME FILL-ORIGIN LEVEL: 0 DIFFERENT FILL-ORIGIN LEVEL: 0
STLB AVERAGE MISS LATENCY: 154.586 cycles
STLB AVERAGE MISS LATENCY LOAD: -nan cycles
STLB AVERAGE MISS LATENCY PREFETCH: -nan cycles
STLB AVERAGE MSHR OCCUPANCY: 0.00119433
STLB MSHR FULL: 0
STLB RQ	ACCESS:   32208352	FORWARD:          0	MERGED:    6046393	TO_CACHE:   26161959

STLB Hit, L1D data hit: 0
STLB Hit, L2C data hit: 0
STLB Hit, LLC data hit: 0
STLB Hit, LLC data miss: 0
STLB STLB hints to L2: 0
L0D SPEC fills:    5814643  NON-SPEC fills:          0
L0D TimeGuard Request with older TS:      70336 Restricted eviction:      12543 read:      24878
L0D Test counter :          0
L0D Leapfrog:          0
L0D MSHR merge:    1125675
L0D TOTAL     ACCESS:   67851846  HIT:   24406779  MISS:   43445067  HIT %:    35.9707  MISS %:    64.0293   MPKI: 217.225
L0D LOAD      TOTAL       ACCESS:   67851846  HIT:   24406779  MISS:   43445067  HIT %:    35.9707  MISS %:    64.0293   MPKI: 217.225
L0D LOAD      NON_SPEC    ACCESS:   37632356  HIT:      14475  MISS:   37617881  HIT %:  0.0384642  MISS %:    99.9615   MPKI: 188.089
L0D LOAD      SPEC        ACCESS:   30219490  HIT:   24392304  MISS:    5827186  HIT %:    80.7171  MISS %:    19.2829   MPKI: 29.1359
L0D PREFETCH  REQUESTED:          0  ISSUED:          0  USEFUL:          0  USELESS:          0
L0D USEFUL LOAD PREFETCHES:          0 PREFETCH ISSUED TO LOWER LEVEL:          0  ACCURACY: -nan
L0D TIMELY PREFETCHES:          0 LATE PREFETCHES: 0 DROPPED PREFETCHES: 0
L0D COMMIT LATE PREFETCHES: 0 MISSED OPPORTUNITY: 0 LATE IN PQ: 0 UNCOVERED: 0
L0D COMMIT LATE MSHR PREFETCHES: 0
L0D MPKI TOTAL: 222.854 MSHR LATE: 0 PQ LATE: 0 COMMIT LATE: 0 MISSED OPPORTUNITY: 0 UNCOVERED: 0
L0D PREFETCHES SAME FILL-ORIGIN LEVEL: 0 DIFFERENT FILL-ORIGIN LEVEL: 0
L0D AVERAGE MISS LATENCY: 65.7346 cycles
L0D AVERAGE MISS LATENCY LOAD: 65.7346 cycles
L0D AVERAGE MISS LATENCY PREFETCH: -nan cycles
L0D AVERAGE MSHR OCCUPANCY: 0.220241
L0D MSHR FULL: 0
L0D RQ	ACCESS:   77350916	FORWARD:          0	MERGED:    8373396	TO_CACHE:   68977520
L0D WQ	ACCESS:    3305817	FORWARD:          0	MERGED:          0	TO_CACHE:    3305817

L1D SPEC fills:          0  NON-SPEC fills:   31824546
L1D Test counter :          0
L1D Leapfrog:          0
L1D MSHR merge:      54072
L1D TOTAL     ACCESS:   54851234  HIT:   19271004  MISS:   35580230  HIT %:    35.1332  MISS %:    64.8668   MPKI: 177.901
L1D LOAD      TOTAL       ACCESS:   43445050  HIT:   11524488  MISS:   31920562  HIT %:    26.5266  MISS %:    73.4734   MPKI: 159.603
L1D LOAD      NON_SPEC    ACCESS:   37617880  HIT:    5793334  MISS:   31824546  HIT %:    15.4005  MISS %:    84.5995   MPKI: 159.123
L1D LOAD      SPEC        ACCESS:    5827170  HIT:    5731154  MISS:      96016  HIT %:    98.3523  MISS %:    1.64773   MPKI: 0.48008
L1D RFO       NON_SPEC    ACCESS:    2547572  HIT:    2481411  MISS:      66161  HIT %:     97.403  MISS %:    2.59702   MPKI: 0.330805
L1D PREFETCH  NON_SPEC    ACCESS:    8445456  HIT:    4947073  MISS:    3498383  HIT %:    58.5767  MISS %:    41.4233   MPKI: 17.4919
L1D COMMIT LOAD NON_SPEC    ACCESS:     304760  HIT:     304545  MISS:        215  HIT %:    99.9295  MISS %:  0.0705473   MPKI: 0.001075
L1D COMMIT WRITE NON_SPEC    ACCESS:     108396  HIT:      13487  MISS:      94909  HIT %:    12.4423  MISS %:    87.5577   MPKI: 0.474545
L1D PREFETCH  REQUESTED:    9244288  ISSUED:    9244288  USEFUL:    2567330  USELESS:     931053
L1D USEFUL LOAD PREFETCHES:    2567330 PREFETCH ISSUED TO LOWER LEVEL:    3552953  ACCURACY: 72.259
L1D TIMELY PREFETCHES:    2567330 LATE PREFETCHES: 54055 DROPPED PREFETCHES: 0
L1D COMMIT LATE PREFETCHES: 0 MISSED OPPORTUNITY: 0 LATE IN PQ: 0 UNCOVERED: 0
L1D COMMIT LATE MSHR PREFETCHES: 0
L1D MPKI TOTAL: 159.603 MSHR LATE: 0.270275 PQ LATE: 0 COMMIT LATE: 0 MISSED OPPORTUNITY: 0 UNCOVERED: 0
L1D PREFETCHES SAME FILL-ORIGIN LEVEL: 3552438 DIFFERENT FILL-ORIGIN LEVEL: 515
L1D AVERAGE MISS LATENCY: 92.8446 cycles
L1D AVERAGE MISS LATENCY LOAD: 82.6578 cycles
L1D AVERAGE MISS LATENCY PREFETCH: 186.243 cycles
L1D AVERAGE MSHR OCCUPANCY: 0.359019
L1D MSHR FULL: 0
L1D RQ	ACCESS:   43767015	FORWARD:          0	MERGED:      17072	TO_CACHE:   43749827
L1D WQ	ACCESS:    3414215	FORWARD:        116	MERGED:        597	TO_CACHE:    3413618
L1D PQ	ACCESS:    9244288	FORWARD:          0	MERGED:      33361	TO_CACHE:    9210927

L1D UNIQUE REGIONS ACCESSED: 0
L1D REGIONS CONFLICTS: 0
L1D Cross Page Prefetch Requests: 0
L1D Same Page Prefetch Requests: 11879774
L1D ROI Sum of L1D PQ occupancy: 122829549
L1D PREFETCHES PUSHED FROM L2C: 0
L1I SPEC fills:          0  NON-SPEC fills:          0
L1I Test counter :          0
L1I Leapfrog:          0
L1I MSHR merge:          1
L1I TOTAL     ACCESS:   59859105  HIT:   59859084  MISS:         21  HIT %:        100  MISS %: 3.50824e-05   MPKI: 0.000105
L1I LOAD      TOTAL       ACCESS:   59859105  HIT:   59859084  MISS:         21  HIT %:        100  MISS %: 3.50824e-05   MPKI: 0.000105
L1I LOAD      NON_SPEC    ACCESS:   59859105  HIT:   59859084  MISS:         21  HIT %:        100  MISS %: 3.50824e-05   MPKI: 0.000105
L1I PREFETCH  REQUESTED:          0  ISSUED:          0  USEFUL:          0  USELESS:          0
L1I USEFUL LOAD PREFETCHES:          0 PREFETCH ISSUED TO LOWER LEVEL:          0  ACCURACY: -nan
L1I TIMELY PREFETCHES:          0 LATE PREFETCHES: 0 DROPPED PREFETCHES: 0
L1I COMMIT LATE PREFETCHES: 0 MISSED OPPORTUNITY: 0 LATE IN PQ: 0 UNCOVERED: 0
L1I COMMIT LATE MSHR PREFETCHES: 0
L1I MPKI TOTAL: 0.00011 MSHR LATE: 0 PQ LATE: 0 COMMIT LATE: 0 MISSED OPPORTUNITY: 0 UNCOVERED: 0
L1I PREFETCHES SAME FILL-ORIGIN LEVEL: 0 DIFFERENT FILL-ORIGIN LEVEL: 0
L1I AVERAGE MISS LATENCY: 166.381 cycles
L1I AVERAGE MISS LATENCY LOAD: 166.381 cycles
L1I AVERAGE MISS LATENCY PREFETCH: -nan cycles
L1I AVERAGE MSHR OCCUPANCY: 1.33647e-07
L1I MSHR FULL: 0
L1I RQ	ACCESS:   70989884	FORWARD:          0	MERGED:   11130777	TO_CACHE:   59859107

BTB SPEC fills:          0  NON-SPEC fills:          0
BTB Test counter :          0
BTB Leapfrog:          0
BTB MSHR merge:          0
BTB TOTAL     ACCESS:   37022761  HIT:   37022589  MISS:        172  HIT %:    99.9995  MISS %: 0.000464579   MPKI: 0.00086
BTB BRANCH_DIRECT_JUMP	ACCESS:         66  HIT:         33  MISS:         33
BTB BRANCH_INDIRECT	ACCESS:          4  HIT:          0  MISS:          4
BTB BRANCH_CONDITIONAL	ACCESS:   37022625  HIT:   37022536  MISS:         89
BTB BRANCH_DIRECT_CALL	ACCESS:         28  HIT:         10  MISS:         18
BTB BRANCH_INDIRECT_CALL	ACCESS:          5  HIT:          1  MISS:          4
BTB BRANCH_RETURN	ACCESS:         33  HIT:          9  MISS:         24
BTB BRANCH_OTHER ACCESS:          0  HIT:          0  MISS:          0

L2C SPEC fills:          0  NON-SPEC fills:   22418856
L2C Test counter :          0
L2C Leapfrog:          0
L2C MSHR merge:          0
L2C TOTAL     ACCESS:   35899377  HIT:    9841984  MISS:   26057393  HIT %:    27.4155  MISS %:    72.5845   MPKI: 130.287
L2C LOAD      TOTAL       ACCESS:   31866528  HIT:    9394594  MISS:   22471934  HIT %:    29.4811  MISS %:    70.5189   MPKI: 112.36
L2C LOAD      NON_SPEC    ACCESS:   31777507  HIT:    9358630  MISS:   22418877  HIT %:    29.4505  MISS %:    70.5495   MPKI: 112.094
L2C LOAD      SPEC        ACCESS:      89021  HIT:      35964  MISS:      53057  HIT %:    40.3995  MISS %:    59.6005   MPKI: 0.265285
L2C RFO       NON_SPEC    ACCESS:      66161  HIT:        696  MISS:      65465  HIT %:    1.05198  MISS %:     98.948   MPKI: 0.327325
L2C PREFETCH  NON_SPEC    ACCESS:    3552751  HIT:      99467  MISS:    3453284  HIT %:    2.79972  MISS %:    97.2003   MPKI: 17.2664
L2C WRITEBACK NON_SPEC    ACCESS:     132050  HIT:     131281  MISS:        769  HIT %:    99.4176  MISS %:   0.582355   MPKI: 0.003845
L2C CLEAN_EVICTION NON_SPEC    ACCESS:      77629  HIT:      24381  MISS:      53248  HIT %:    31.4071  MISS %:    68.5929   MPKI: 0.26624
L2C COMMIT LOAD NON_SPEC    ACCESS:        215  HIT:        209  MISS:          6  HIT %:    97.2093  MISS %:     2.7907   MPKI: 3e-05
L2C LOAD TRANSLATION NON_SPEC    ACCESS:     204043  HIT:     191356  MISS:      12687  HIT %:    93.7822  MISS %:    6.21781   MPKI: 0.063435
L2C PREFETCH  REQUESTED:          0  ISSUED:          0  USEFUL:      80289  USELESS:    3373034
L2C USEFUL LOAD PREFETCHES:      80289 PREFETCH ISSUED TO LOWER LEVEL:    3453284  ACCURACY: 2.325
L2C TIMELY PREFETCHES:      80289 LATE PREFETCHES: 0 DROPPED PREFETCHES: 0
L2C COMMIT LATE PREFETCHES: 0 MISSED OPPORTUNITY: 0 LATE IN PQ: 0 UNCOVERED: 0
L2C COMMIT LATE MSHR PREFETCHES: 0
L2C MPKI TOTAL: 112.36 MSHR LATE: 0 PQ LATE: 0 COMMIT LATE: 0 MISSED OPPORTUNITY: 0 UNCOVERED: 0
L2C PREFETCHES SAME FILL-ORIGIN LEVEL: 487 DIFFERENT FILL-ORIGIN LEVEL: 0
L2C AVERAGE MISS LATENCY: 106.518 cycles
L2C AVERAGE MISS LATENCY LOAD: 95.9353 cycles
L2C AVERAGE MISS LATENCY PREFETCH: 175.441 cycles
L2C AVERAGE MSHR OCCUPANCY: 0.167177
L2C MSHR FULL: 0
L2C RQ	ACCESS:   32136947	FORWARD:          0	MERGED:          0	TO_CACHE:   32136947
L2C WQ	ACCESS:     209679	FORWARD:          0	MERGED:          0	TO_CACHE:     209679
L2C PQ	ACCESS:    3552953	FORWARD:          0	MERGED:          0	TO_CACHE:    3552953

L2C Instructions Evicting Data 21
L2C Translations Evicting Data 12687
L2C Data Evicting Data 25924929
L2C Instructions Evicting Instructions 0
L2C Translations Evicting Instructions 0
L2C Data Evicting Instructions 21
L2C Instructions Evicting Translations 0
L2C Translations Evicting Translations 0
L2C Data Evicting Translations 12661
L2C Dense regions hint from L2: 0
PSCL5 SPEC fills:          0  NON-SPEC fills:          0
PSCL5 Test counter :          0
PSCL5 Leapfrog:          0
PSCL5 MSHR merge:          0
PSCL5 TOTAL     ACCESS:          0  HIT:          0  MISS:          0  HIT %:       -nan  MISS %:       -nan   MPKI: 0
PSCL5 PREFETCH  REQUESTED:          0  ISSUED:          0  USEFUL:          0  USELESS:          0
PSCL5 USEFUL LOAD PREFETCHES:          0 PREFETCH ISSUED TO LOWER LEVEL:          0  ACCURACY: -nan
PSCL5 TIMELY PREFETCHES:          0 LATE PREFETCHES: 0 DROPPED PREFETCHES: 0
PSCL5 COMMIT LATE PREFETCHES: 0 MISSED OPPORTUNITY: 0 LATE IN PQ: 0 UNCOVERED: 0
PSCL5 COMMIT LATE MSHR PREFETCHES: 0
PSCL5 MPKI TOTAL: 0 MSHR LATE: 0 PQ LATE: 0 COMMIT LATE: 0 MISSED OPPORTUNITY: 0 UNCOVERED: 0
PSCL5 PREFETCHES SAME FILL-ORIGIN LEVEL: 0 DIFFERENT FILL-ORIGIN LEVEL: 0

PSCL4 SPEC fills:          0  NON-SPEC fills:          0
PSCL4 Test counter :          0
PSCL4 Leapfrog:          0
PSCL4 MSHR merge:          0
PSCL4 TOTAL     ACCESS:          0  HIT:          0  MISS:          0  HIT %:       -nan  MISS %:       -nan   MPKI: 0
PSCL4 PREFETCH  REQUESTED:          0  ISSUED:          0  USEFUL:          0  USELESS:          0
PSCL4 USEFUL LOAD PREFETCHES:          0 PREFETCH ISSUED TO LOWER LEVEL:          0  ACCURACY: -nan
PSCL4 TIMELY PREFETCHES:          0 LATE PREFETCHES: 0 DROPPED PREFETCHES: 0
PSCL4 COMMIT LATE PREFETCHES: 0 MISSED OPPORTUNITY: 0 LATE IN PQ: 0 UNCOVERED: 0
PSCL4 COMMIT LATE MSHR PREFETCHES: 0
PSCL4 MPKI TOTAL: 0 MSHR LATE: 0 PQ LATE: 0 COMMIT LATE: 0 MISSED OPPORTUNITY: 0 UNCOVERED: 0
PSCL4 PREFETCHES SAME FILL-ORIGIN LEVEL: 0 DIFFERENT FILL-ORIGIN LEVEL: 0

PSCL3 SPEC fills:          0  NON-SPEC fills:          0
PSCL3 Test counter :          0
PSCL3 Leapfrog:          0
PSCL3 MSHR merge:          0
PSCL3 TOTAL     ACCESS:          0  HIT:          0  MISS:          0  HIT %:       -nan  MISS %:       -nan   MPKI: 0
PSCL3 PREFETCH  REQUESTED:          0  ISSUED:          0  USEFUL:          0  USELESS:          0
PSCL3 USEFUL LOAD PREFETCHES:          0 PREFETCH ISSUED TO LOWER LEVEL:          0  ACCURACY: -nan
PSCL3 TIMELY PREFETCHES:          0 LATE PREFETCHES: 0 DROPPED PREFETCHES: 0
PSCL3 COMMIT LATE PREFETCHES: 0 MISSED OPPORTUNITY: 0 LATE IN PQ: 0 UNCOVERED: 0
PSCL3 COMMIT LATE MSHR PREFETCHES: 0
PSCL3 MPKI TOTAL: 0 MSHR LATE: 0 PQ LATE: 0 COMMIT LATE: 0 MISSED OPPORTUNITY: 0 UNCOVERED: 0
PSCL3 PREFETCHES SAME FILL-ORIGIN LEVEL: 0 DIFFERENT FILL-ORIGIN LEVEL: 0

PSCL2 SPEC fills:          0  NON-SPEC fills:          0
PSCL2 Test counter :          0
PSCL2 Leapfrog:          0
PSCL2 MSHR merge:          0
PSCL2 TOTAL     ACCESS:          0  HIT:          0  MISS:          0  HIT %:       -nan  MISS %:       -nan   MPKI: 0
PSCL2 PREFETCH  REQUESTED:          0  ISSUED:          0  USEFUL:          0  USELESS:          0
PSCL2 USEFUL LOAD PREFETCHES:          0 PREFETCH ISSUED TO LOWER LEVEL:          0  ACCURACY: -nan
PSCL2 TIMELY PREFETCHES:          0 LATE PREFETCHES: 0 DROPPED PREFETCHES: 0
PSCL2 COMMIT LATE PREFETCHES: 0 MISSED OPPORTUNITY: 0 LATE IN PQ: 0 UNCOVERED: 0
PSCL2 COMMIT LATE MSHR PREFETCHES: 0
PSCL2 MPKI TOTAL: 0 MSHR LATE: 0 PQ LATE: 0 COMMIT LATE: 0 MISSED OPPORTUNITY: 0 UNCOVERED: 0
PSCL2 PREFETCHES SAME FILL-ORIGIN LEVEL: 0 DIFFERENT FILL-ORIGIN LEVEL: 0

LLC SPEC fills:          0  NON-SPEC fills:    9306860
LLC Test counter :          0
LLC Leapfrog:          0
LLC MSHR merge:          0
LLC TOTAL     ACCESS:   26199625  HIT:   13599043  MISS:   12600582  HIT %:    51.9055  MISS %:    48.0945   MPKI: 63.0029
LLC LOAD      TOTAL       ACCESS:   22471934  HIT:   13113356  MISS:    9358578  HIT %:    58.3544  MISS %:    41.6456   MPKI: 46.7929
LLC LOAD      NON_SPEC    ACCESS:   22418877  HIT:   13111996  MISS:    9306881  HIT %:    58.4864  MISS %:    41.5136   MPKI: 46.5344
LLC LOAD      SPEC        ACCESS:      53057  HIT:       1360  MISS:      51697  HIT %:    2.56328  MISS %:    97.4367   MPKI: 0.258485
LLC RFO       NON_SPEC    ACCESS:      65465  HIT:       1271  MISS:      64194  HIT %:     1.9415  MISS %:    98.0585   MPKI: 0.32097
LLC PREFETCH  NON_SPEC    ACCESS:    3453284  HIT:     333852  MISS:    3119432  HIT %:    9.66767  MISS %:    90.3323   MPKI: 15.5972
LLC WRITEBACK NON_SPEC    ACCESS:     124899  HIT:     124495  MISS:        404  HIT %:    99.6765  MISS %:   0.323461   MPKI: 0.00202
LLC CLEAN_EVICTION NON_SPEC    ACCESS:      71350  HIT:      19653  MISS:      51697  HIT %:    27.5445  MISS %:    72.4555   MPKI: 0.258485
LLC COMMIT LOAD NON_SPEC    ACCESS:          6  HIT:          5  MISS:          1  HIT %:    83.3333  MISS %:    16.6667   MPKI: 5e-06
LLC LOAD TRANSLATION NON_SPEC    ACCESS:      12687  HIT:       6411  MISS:       6276  HIT %:     50.532  MISS %:     49.468   MPKI: 0.03138
LLC PREFETCH  REQUESTED:          0  ISSUED:          0  USEFUL:     152703  USELESS:    2967397
LLC USEFUL LOAD PREFETCHES:     152703 PREFETCH ISSUED TO LOWER LEVEL:    3119432  ACCURACY: 4.89522
LLC TIMELY PREFETCHES:     152703 LATE PREFETCHES: 0 DROPPED PREFETCHES: 0
LLC COMMIT LATE PREFETCHES: 0 MISSED OPPORTUNITY: 0 LATE IN PQ: 0 UNCOVERED: 0
LLC COMMIT LATE MSHR PREFETCHES: 0
LLC MPKI TOTAL: 46.7929 MSHR LATE: 0 PQ LATE: 0 COMMIT LATE: 0 MISSED OPPORTUNITY: 0 UNCOVERED: 0
LLC PREFETCHES SAME FILL-ORIGIN LEVEL: 0 DIFFERENT FILL-ORIGIN LEVEL: 0
LLC AVERAGE MISS LATENCY: 158.37 cycles
LLC AVERAGE MISS LATENCY LOAD: 158.338 cycles
LLC AVERAGE MISS LATENCY PREFETCH: 160.988 cycles
LLC AVERAGE MSHR OCCUPANCY: 0.143788
LLC MSHR FULL: 0
LLC RQ	ACCESS:   22550092	FORWARD:          0	MERGED:          0	TO_CACHE:   22550092
LLC WQ	ACCESS:     196249	FORWARD:          0	MERGED:          0	TO_CACHE:     196249
LLC PQ	ACCESS:    3453284	FORWARD:          0	MERGED:          0	TO_CACHE:    3453284

LLC Dense regions hint to LLC: 0

RAW hits: 25
Loads Generated: 77350942
Loads sent to L1D: 77350916
Stores Generated: 3305817
Stores sent to L1D: 3305817
Major fault: 0 Minor fault: 34901
Allocated PAGES: 34901
Total Load insts: 95645184
Total Non-spec loads: 44956872
Percentage of speculative loads: 52.9962

LeapFrogging counter: 0
Commit hits: 5814346 miss: 33854216
Commit hit %: 14.6573 miss %: 85.3427
Commits not translated: 0
Loads retired: 31920562
Stores retired: 3305817
Cache fills: 31920562
L1D response latency: 82.6578 cycles
Load retirement latency: 101.573 cycles
OOO test counter: 0
Discarded buffer inserts: 5814346 hits: 21326 hit %: 0.366782
Filter prediction accuracy: 99.9821
Speculative prefetch buffer size: 0
CPU 0 L1D PC-based stride prefetcher final stats
Degree: 3

DRAM Statistics
 CHANNEL 0
 RQ ROW_BUFFER_HIT:    1690665  ROW_BUFFER_MISS:   10857816
 DBUS_CONGESTED:        555
 WQ ROW_BUFFER_HIT:      59245  ROW_BUFFER_MISS:     137104  FULL:          0

 AVG_CONGESTED_CYCLE: 5
 All warmup complete: 2
Channel 0 Bank busy for read cycles: 0
Channel 0 Bank busy for write cycles: 0
Channel 0
Rank 0
0banks busy for read cycles: 1854179672
0banks busy for write cycles: 124103
1banks busy for read cycles: 1325411513
1banks busy for write cycles: 25793967
2banks busy for read cycles: 136244195
2banks busy for write cycles: 1073645
3banks busy for read cycles: 25112485
3banks busy for write cycles: 226258
4banks busy for read cycles: 7687823
4banks busy for write cycles: 85631
5banks busy for read cycles: 1721496
5banks busy for write cycles: 51144
6banks busy for read cycles: 111074
6banks busy for write cycles: 47151
7banks busy for read cycles: 6616
7banks busy for write cycles: 298898
8banks busy for read cycles: 345
8banks busy for write cycles: 1795842

CPU 0 Branch Prediction Accuracy: 96.9509% MPKI: 5.6443 Average ROB Occupancy at Mispredict: 137.458
Branch types
NOT_BRANCH: 162977012 81.4885%
BRANCH_DIRECT_JUMP: 66 3.3e-05%
BRANCH_INDIRECT: 4 2e-06%
BRANCH_CONDITIONAL: 37022851 18.5114%
BRANCH_DIRECT_CALL: 28 1.4e-05%
BRANCH_INDIRECT_CALL: 5 2.5e-06%
BRANCH_RETURN: 33 1.65e-05%
BRANCH_OTHER: 0 0%

DRAM PAGES: 1048576
Allocated PAGES: 34901
