
*** ChampSim Multicore Out-of-Order Simulator ***

Warmup Instructions: 50000000
Simulation Instructions: 200000000
Number of CPUs: 1
LLC sets: 2048
LLC ways: 16
L0D sets: 16
L0D ways: 2
ROB size: 352
LQ size: 128
SQ size: 72
Secure Berti: OFF
Berti: OFF
Berti Fill: OFF
On commit prefetching: OFF
Hit-based filter: ON
Time-guarding: ON
Free-slotting: ON
Leap-frogging: ON
Train prefetcher on L0D bypass: OFF
No translation penalty for prefetchers: OFF
Prefetch to L0D only: OFF
Prefetch to L1D only: OFF
Clean evictions: ON
Commit loads: ON
Commit write: ON
Fill commit loads to L2C, LLC: ON
DRAM IO FREQUENCY: 6400
ROB SIZE: 352
Off-chip DRAM Size: 4096 MB Channels: 1 Width: 64-bit Data Rate: 6400 MT/s
CPU 0 runs /home/sumon/secure_berti/GhostMinion/../../traces/gap/sssp-10.trace.gz
.gz
BTB has LRU replacement policy
ITLB has LRU replacement policy
DTLB has LRU replacement policy
STLB has LRU replacement policy
L1I has LRU replacement policy
L0D has LRU replacement policy
CPU 0 L1D IP-based stride prefetcher
L1D has LRU replacement policy
L2C has LRU replacement policy
LLC has LRU replacement policy
Heartbeat CPU 0 instructions: 10000000 cycles: 3949271 heartbeat IPC: 2.53211 cumulative IPC: 2.53211 (Simulation time: 0 hr 0 min 32 sec) 
Heartbeat CPU 0 instructions: 20000001 cycles: 7766423 heartbeat IPC: 2.61975 cumulative IPC: 2.57519 (Simulation time: 0 hr 1 min 4 sec) 
Heartbeat CPU 0 instructions: 30000003 cycles: 11541351 heartbeat IPC: 2.64906 cumulative IPC: 2.59935 (Simulation time: 0 hr 1 min 39 sec) 
Heartbeat CPU 0 instructions: 40000002 cycles: 15287833 heartbeat IPC: 2.66917 cumulative IPC: 2.61646 (Simulation time: 0 hr 2 min 13 sec) 
Heartbeat CPU 0 instructions: 50000001 cycles: 19016024 heartbeat IPC: 2.68227 cumulative IPC: 2.62936 (Simulation time: 0 hr 2 min 48 sec) 

Warmup complete CPU 0 instructions: 50000001 cycles: 19016024 (Simulation time: 0 hr 2 min 48 sec) 

Heartbeat CPU 0 instructions: 60000000 cycles: 46381935 heartbeat IPC: 0.365418 cumulative IPC: 0.365418 (Simulation time: 0 hr 3 min 37 sec) 
Heartbeat CPU 0 instructions: 70000000 cycles: 72651951 heartbeat IPC: 0.380662 cumulative IPC: 0.372884 (Simulation time: 0 hr 4 min 27 sec) 
Heartbeat CPU 0 instructions: 80000001 cycles: 98449328 heartbeat IPC: 0.387636 cumulative IPC: 0.377675 (Simulation time: 0 hr 5 min 17 sec) 
Heartbeat CPU 0 instructions: 90000000 cycles: 124285686 heartbeat IPC: 0.387051 cumulative IPC: 0.379977 (Simulation time: 0 hr 6 min 7 sec) 
Heartbeat CPU 0 instructions: 100000000 cycles: 149177440 heartbeat IPC: 0.401739 cumulative IPC: 0.384138 (Simulation time: 0 hr 6 min 58 sec) 
Heartbeat CPU 0 instructions: 110000000 cycles: 173500584 heartbeat IPC: 0.411131 cumulative IPC: 0.388388 (Simulation time: 0 hr 7 min 46 sec) 
Heartbeat CPU 0 instructions: 120000003 cycles: 197843112 heartbeat IPC: 0.410804 cumulative IPC: 0.39144 (Simulation time: 0 hr 8 min 33 sec) 
Heartbeat CPU 0 instructions: 130000002 cycles: 221635549 heartbeat IPC: 0.420302 cumulative IPC: 0.394829 (Simulation time: 0 hr 9 min 19 sec) 
Heartbeat CPU 0 instructions: 140000002 cycles: 245258827 heartbeat IPC: 0.423311 cumulative IPC: 0.397803 (Simulation time: 0 hr 10 min 5 sec) 
Heartbeat CPU 0 instructions: 150000000 cycles: 269031130 heartbeat IPC: 0.420658 cumulative IPC: 0.399976 (Simulation time: 0 hr 10 min 50 sec) 
Heartbeat CPU 0 instructions: 160000001 cycles: 292390804 heartbeat IPC: 0.428088 cumulative IPC: 0.402378 (Simulation time: 0 hr 11 min 37 sec) 
Heartbeat CPU 0 instructions: 170000002 cycles: 315865671 heartbeat IPC: 0.425988 cumulative IPC: 0.404245 (Simulation time: 0 hr 12 min 23 sec) 
Heartbeat CPU 0 instructions: 180000001 cycles: 339592451 heartbeat IPC: 0.421465 cumulative IPC: 0.40552 (Simulation time: 0 hr 13 min 15 sec) 
Heartbeat CPU 0 instructions: 190000002 cycles: 362819450 heartbeat IPC: 0.430533 cumulative IPC: 0.407209 (Simulation time: 0 hr 14 min 15 sec) 
Heartbeat CPU 0 instructions: 200000003 cycles: 385384814 heartbeat IPC: 0.443157 cumulative IPC: 0.409424 (Simulation time: 0 hr 15 min 8 sec) 
Heartbeat CPU 0 instructions: 210000003 cycles: 408252212 heartbeat IPC: 0.437304 cumulative IPC: 0.411061 (Simulation time: 0 hr 16 min 1 sec) 
Heartbeat CPU 0 instructions: 220000000 cycles: 431121902 heartbeat IPC: 0.43726 cumulative IPC: 0.412515 (Simulation time: 0 hr 16 min 54 sec) 
Heartbeat CPU 0 instructions: 230000001 cycles: 453564695 heartbeat IPC: 0.445577 cumulative IPC: 0.414223 (Simulation time: 0 hr 17 min 46 sec) 
Heartbeat CPU 0 instructions: 240000001 cycles: 475986082 heartbeat IPC: 0.446003 cumulative IPC: 0.415782 (Simulation time: 0 hr 18 min 37 sec) 
Heartbeat CPU 0 instructions: 250000000 cycles: 498508330 heartbeat IPC: 0.444005 cumulative IPC: 0.417108 (Simulation time: 0 hr 19 min 26 sec) 
Finished CPU 0 instructions: 200000003 cycles: 479492307 cumulative IPC: 0.417108 (Simulation time: 0 hr 19 min 26 sec) 
 Instruction ID: 250000054

ChampSim completed all CPUs

Region of Interest Statistics

CPU 0 cumulative IPC: 0.417108 instructions: 200000003 cycles: 479492307
ITLB SPEC fills:          0  NON-SPEC fills:          0
ITLB Test counter :          0
ITLB Leapfrog:          0
ITLB MSHR merge:          0
ITLB TOTAL     ACCESS:   24174563  HIT:   24174563  MISS:          0  HIT %:        100  MISS %:          0   MPKI: 0
ITLB LOAD TRANSLATION NON_SPEC    ACCESS:   24174563  HIT:   24174563  MISS:          0  HIT %:        100  MISS %:          0   MPKI: 0
ITLB PREFETCH  REQUESTED:          0  ISSUED:          0  USEFUL:          0  USELESS:          0
ITLB USEFUL LOAD PREFETCHES:          0 PREFETCH ISSUED TO LOWER LEVEL:          0  ACCURACY: -nan
ITLB TIMELY PREFETCHES:          0 LATE PREFETCHES: 0 DROPPED PREFETCHES: 0
ITLB COMMIT LATE PREFETCHES: 0 MISSED OPPORTUNITY: 0 LATE IN PQ: 0 UNCOVERED: 0
ITLB COMMIT LATE MSHR PREFETCHES: 0
ITLB MPKI TOTAL: 0 MSHR LATE: 0 PQ LATE: 0 COMMIT LATE: 0 MISSED OPPORTUNITY: 0 UNCOVERED: 0
ITLB PREFETCHES SAME FILL-ORIGIN LEVEL: 0 DIFFERENT FILL-ORIGIN LEVEL: 0
ITLB AVERAGE MISS LATENCY: -nan cycles
ITLB AVERAGE MISS LATENCY LOAD: -nan cycles
ITLB AVERAGE MISS LATENCY PREFETCH: -nan cycles
ITLB AVERAGE MSHR OCCUPANCY: 0
ITLB MSHR FULL: 0
ITLB RQ	ACCESS:   24838758	FORWARD:          0	MERGED:     664195	TO_CACHE:   24174563

DTLB SPEC fills:          0  NON-SPEC fills:          0
DTLB Test counter :          0
DTLB Leapfrog:          0
DTLB MSHR merge:          0
DTLB TOTAL     ACCESS:   48365224  HIT:   43690314  MISS:    4674910  HIT %:    90.3342  MISS %:    9.66585   MPKI: 23.3745
DTLB LOAD TRANSLATION NON_SPEC    ACCESS:   48365224  HIT:   43690314  MISS:    4674910  HIT %:    90.3342  MISS %:    9.66585   MPKI: 23.3745
DTLB PREFETCH  REQUESTED:          0  ISSUED:          0  USEFUL:          0  USELESS:          0
DTLB USEFUL LOAD PREFETCHES:          0 PREFETCH ISSUED TO LOWER LEVEL:          0  ACCURACY: -nan
DTLB TIMELY PREFETCHES:          0 LATE PREFETCHES: 0 DROPPED PREFETCHES: 0
DTLB COMMIT LATE PREFETCHES: 0 MISSED OPPORTUNITY: 0 LATE IN PQ: 0 UNCOVERED: 0
DTLB COMMIT LATE MSHR PREFETCHES: 0
DTLB MPKI TOTAL: 0 MSHR LATE: 0 PQ LATE: 0 COMMIT LATE: 0 MISSED OPPORTUNITY: 0 UNCOVERED: 0
DTLB PREFETCHES SAME FILL-ORIGIN LEVEL: 0 DIFFERENT FILL-ORIGIN LEVEL: 0
DTLB AVERAGE MISS LATENCY: 12.2263 cycles
DTLB AVERAGE MISS LATENCY LOAD: -nan cycles
DTLB AVERAGE MISS LATENCY PREFETCH: -nan cycles
DTLB AVERAGE MSHR OCCUPANCY: 0.232876
DTLB MSHR FULL: 2.87137e-07
DTLB RQ	ACCESS:   52767253	FORWARD:          0	MERGED:    4010088	TO_CACHE:   48757165

STLB SPEC fills:          0  NON-SPEC fills:          0
STLB Test counter :          0
STLB Leapfrog:          0
STLB MSHR merge:          0
STLB TOTAL     ACCESS:    7039621  HIT:    6978857  MISS:      60764  HIT %:    99.1368  MISS %:   0.863171   MPKI: 0.30382
STLB LOAD TRANSLATION NON_SPEC    ACCESS:    4674910  HIT:    4614148  MISS:      60762  HIT %:    98.7003  MISS %:    1.29975   MPKI: 0.30381
STLB TRANSLATION FROM L1D PREFETCHER NON_SPEC    ACCESS:    2364711  HIT:    2364709  MISS:          2  HIT %:    99.9999  MISS %: 8.45769e-05   MPKI: 1e-05
STLB PREFETCH  REQUESTED:          0  ISSUED:          0  USEFUL:          2  USELESS:          0
STLB USEFUL LOAD PREFETCHES:          2 PREFETCH ISSUED TO LOWER LEVEL:          0  ACCURACY: inf
STLB TIMELY PREFETCHES:          2 LATE PREFETCHES: 0 DROPPED PREFETCHES: 0
STLB COMMIT LATE PREFETCHES: 0 MISSED OPPORTUNITY: 0 LATE IN PQ: 0 UNCOVERED: 0
STLB COMMIT LATE MSHR PREFETCHES: 0
STLB MPKI TOTAL: 0 MSHR LATE: 0 PQ LATE: 0 COMMIT LATE: 0 MISSED OPPORTUNITY: 0 UNCOVERED: 0
STLB PREFETCHES SAME FILL-ORIGIN LEVEL: 0 DIFFERENT FILL-ORIGIN LEVEL: 0
STLB AVERAGE MISS LATENCY: 230.845 cycles
STLB AVERAGE MISS LATENCY LOAD: -nan cycles
STLB AVERAGE MISS LATENCY PREFETCH: -nan cycles
STLB AVERAGE MSHR OCCUPANCY: 0.00937962
STLB MSHR FULL: 0
STLB RQ	ACCESS:   11560626	FORWARD:          0	MERGED:    4521005	TO_CACHE:    7039621

STLB Hit, L1D data hit: 0
STLB Hit, L2C data hit: 0
STLB Hit, LLC data hit: 0
STLB Hit, LLC data miss: 0
STLB STLB hints to L2: 0
L0D SPEC fills:   26343750  NON-SPEC fills:          0
L0D TimeGuard Request with older TS:    2313115 Restricted eviction:     239457 read:    4319888
L0D Test counter :          0
L0D Leapfrog:          0
L0D MSHR merge:    2091233
L0D TOTAL     ACCESS:   48459250  HIT:   16855850  MISS:   31603400  HIT %:    34.7836  MISS %:    65.2164   MPKI: 158.017
L0D LOAD      TOTAL       ACCESS:   48459250  HIT:   16855850  MISS:   31603400  HIT %:    34.7836  MISS %:    65.2164   MPKI: 158.017
L0D LOAD      NON_SPEC    ACCESS:    5106311  HIT:      86118  MISS:    5020193  HIT %:     1.6865  MISS %:    98.3135   MPKI: 25.101
L0D LOAD      SPEC        ACCESS:   43352939  HIT:   16769732  MISS:   26583207  HIT %:    38.6819  MISS %:    61.3181   MPKI: 132.916
L0D PREFETCH  REQUESTED:          0  ISSUED:          0  USEFUL:          0  USELESS:          0
L0D USEFUL LOAD PREFETCHES:          0 PREFETCH ISSUED TO LOWER LEVEL:          0  ACCURACY: -nan
L0D TIMELY PREFETCHES:          0 LATE PREFETCHES: 0 DROPPED PREFETCHES: 0
L0D COMMIT LATE PREFETCHES: 0 MISSED OPPORTUNITY: 0 LATE IN PQ: 0 UNCOVERED: 0
L0D COMMIT LATE MSHR PREFETCHES: 0
L0D MPKI TOTAL: 168.473 MSHR LATE: 0 PQ LATE: 0 COMMIT LATE: 0 MISSED OPPORTUNITY: 0 UNCOVERED: 0
L0D PREFETCHES SAME FILL-ORIGIN LEVEL: 0 DIFFERENT FILL-ORIGIN LEVEL: 0
L0D AVERAGE MISS LATENCY: 28.2712 cycles
L0D AVERAGE MISS LATENCY LOAD: 28.2712 cycles
L0D AVERAGE MISS LATENCY PREFETCH: -nan cycles
L0D AVERAGE MSHR OCCUPANCY: 2.16505
L0D MSHR FULL: 0.0544097
L0D RQ	ACCESS:   76741454	FORWARD:          0	MERGED:   26190973	TO_CACHE:   50550481
L0D WQ	ACCESS:    2216772	FORWARD:          0	MERGED:          0	TO_CACHE:    2216772

L1D SPEC fills:          0  NON-SPEC fills:    1728504
L1D Test counter :          0
L1D Leapfrog:          0
L1D MSHR merge:      36456
L1D TOTAL     ACCESS:   47347112  HIT:   28448704  MISS:   18898408  HIT %:    60.0854  MISS %:    39.9146   MPKI: 94.492
L1D LOAD      TOTAL       ACCESS:   31602620  HIT:   22345059  MISS:    9257561  HIT %:    70.7063  MISS %:    29.2937   MPKI: 46.2878
L1D LOAD      NON_SPEC    ACCESS:    5019554  HIT:    3291050  MISS:    1728504  HIT %:    65.5646  MISS %:    34.4354   MPKI: 8.64252
L1D LOAD      SPEC        ACCESS:   26583066  HIT:   19054009  MISS:    7529057  HIT %:    71.6772  MISS %:    28.3228   MPKI: 37.6453
L1D RFO       NON_SPEC    ACCESS:    2024453  HIT:    1547348  MISS:     477105  HIT %:    76.4329  MISS %:    23.5671   MPKI: 2.38552
L1D PREFETCH  NON_SPEC    ACCESS:    5718048  HIT:    4096680  MISS:    1621368  HIT %:    71.6447  MISS %:    28.3553   MPKI: 8.10684
L1D COMMIT LOAD NON_SPEC    ACCESS:     545877  HIT:     424771  MISS:     121106  HIT %:    77.8144  MISS %:    22.1856   MPKI: 0.60553
L1D COMMIT WRITE NON_SPEC    ACCESS:    7456114  HIT:      34846  MISS:    7421268  HIT %:   0.467348  MISS %:    99.5327   MPKI: 37.1063
L1D PREFETCH  REQUESTED:    7196760  ISSUED:    7196733  USEFUL:    1149077  USELESS:     472333
L1D USEFUL LOAD PREFETCHES:    1149077 PREFETCH ISSUED TO LOWER LEVEL:    1721760  ACCURACY: 66.7385
L1D TIMELY PREFETCHES:    1149077 LATE PREFETCHES: 35683 DROPPED PREFETCHES: 0
L1D COMMIT LATE PREFETCHES: 0 MISSED OPPORTUNITY: 0 LATE IN PQ: 0 UNCOVERED: 0
L1D COMMIT LATE MSHR PREFETCHES: 0
L1D MPKI TOTAL: 46.2917 MSHR LATE: 0.178415 PQ LATE: 0 COMMIT LATE: 0 MISSED OPPORTUNITY: 0 UNCOVERED: 0
L1D PREFETCHES SAME FILL-ORIGIN LEVEL: 1657052 DIFFERENT FILL-ORIGIN LEVEL: 64708
L1D AVERAGE MISS LATENCY: 58.6463 cycles
L1D AVERAGE MISS LATENCY LOAD: 78.9311 cycles
L1D AVERAGE MISS LATENCY PREFETCH: 199.885 cycles
L1D AVERAGE MSHR OCCUPANCY: 2.76709
L1D MSHR FULL: 0.0619512
L1D RQ	ACCESS:   32497387	FORWARD:          0	MERGED:     342297	TO_CACHE:   32149897
L1D WQ	ACCESS:    9672887	FORWARD:       5193	MERGED:       1159	TO_CACHE:    9671728
L1D PQ	ACCESS:    7196733	FORWARD:          0	MERGED:     311017	TO_CACHE:    6885716

L1D UNIQUE REGIONS ACCESSED: 0
L1D REGIONS CONFLICTS: 0
L1D Cross Page Prefetch Requests: 0
L1D Same Page Prefetch Requests: 8852389
L1D ROI Sum of L1D PQ occupancy: 96305300
L1D PREFETCHES PUSHED FROM L2C: 0
L1I SPEC fills:          0  NON-SPEC fills:          0
L1I Test counter :          0
L1I Leapfrog:          0
L1I MSHR merge:          0
L1I TOTAL     ACCESS:   24838758  HIT:   24838758  MISS:          0  HIT %:        100  MISS %:          0   MPKI: 0
L1I LOAD      TOTAL       ACCESS:   24838758  HIT:   24838758  MISS:          0  HIT %:        100  MISS %:          0   MPKI: 0
L1I LOAD      NON_SPEC    ACCESS:   24838758  HIT:   24838758  MISS:          0  HIT %:        100  MISS %:          0   MPKI: 0
L1I PREFETCH  REQUESTED:          0  ISSUED:          0  USEFUL:          0  USELESS:          0
L1I USEFUL LOAD PREFETCHES:          0 PREFETCH ISSUED TO LOWER LEVEL:          0  ACCURACY: -nan
L1I TIMELY PREFETCHES:          0 LATE PREFETCHES: 0 DROPPED PREFETCHES: 0
L1I COMMIT LATE PREFETCHES: 0 MISSED OPPORTUNITY: 0 LATE IN PQ: 0 UNCOVERED: 0
L1I COMMIT LATE MSHR PREFETCHES: 0
L1I MPKI TOTAL: 0 MSHR LATE: 0 PQ LATE: 0 COMMIT LATE: 0 MISSED OPPORTUNITY: 0 UNCOVERED: 0
L1I PREFETCHES SAME FILL-ORIGIN LEVEL: 0 DIFFERENT FILL-ORIGIN LEVEL: 0
L1I AVERAGE MISS LATENCY: -nan cycles
L1I AVERAGE MISS LATENCY LOAD: -nan cycles
L1I AVERAGE MISS LATENCY PREFETCH: -nan cycles
L1I AVERAGE MSHR OCCUPANCY: 0
L1I MSHR FULL: 0
L1I RQ	ACCESS:   38858498	FORWARD:          0	MERGED:   14019740	TO_CACHE:   24838758

BTB SPEC fills:          0  NON-SPEC fills:          0
BTB Test counter :          0
BTB Leapfrog:          0
BTB MSHR merge:          0
BTB TOTAL     ACCESS:   29056031  HIT:   29055886  MISS:        145  HIT %:    99.9995  MISS %: 0.000499036   MPKI: 0.000725
BTB BRANCH_DIRECT_JUMP	ACCESS:    9225403  HIT:    9225362  MISS:         41
BTB BRANCH_INDIRECT	ACCESS:          0  HIT:          0  MISS:          0
BTB BRANCH_CONDITIONAL	ACCESS:   19828000  HIT:   19827919  MISS:         81
BTB BRANCH_DIRECT_CALL	ACCESS:       1314  HIT:       1305  MISS:          9
BTB BRANCH_INDIRECT_CALL	ACCESS:          0  HIT:          0  MISS:          0
BTB BRANCH_RETURN	ACCESS:       1314  HIT:       1300  MISS:         14
BTB BRANCH_OTHER ACCESS:          0  HIT:          0  MISS:          0

L2C SPEC fills:          0  NON-SPEC fills:    1164925
L2C Test counter :          0
L2C Leapfrog:          0
L2C MSHR merge:      18567
L2C TOTAL     ACCESS:   18479459  HIT:    3786369  MISS:   14693090  HIT %:    20.4896  MISS %:    79.5104   MPKI: 73.4654
L2C LOAD      TOTAL       ACCESS:    9221865  HIT:    2227440  MISS:    6994425  HIT %:    24.1539  MISS %:    75.8461   MPKI: 34.9721
L2C LOAD      NON_SPEC    ACCESS:    1724724  HIT:     559799  MISS:    1164925  HIT %:    32.4573  MISS %:    67.5427   MPKI: 5.82462
L2C LOAD      SPEC        ACCESS:    7497141  HIT:    1667641  MISS:    5829500  HIT %:    22.2437  MISS %:    77.7563   MPKI: 29.1475
L2C RFO       NON_SPEC    ACCESS:     477096  HIT:     309104  MISS:     167992  HIT %:    64.7886  MISS %:    35.2114   MPKI: 0.83996
L2C PREFETCH  NON_SPEC    ACCESS:    1691838  HIT:      37947  MISS:    1653891  HIT %:    2.24295  MISS %:    97.7571   MPKI: 8.26945
L2C WRITEBACK NON_SPEC    ACCESS:     833186  HIT:     831979  MISS:       1207  HIT %:    99.8551  MISS %:   0.144866   MPKI: 0.006035
L2C CLEAN_EVICTION NON_SPEC    ACCESS:    5830559  HIT:      84033  MISS:    5746526  HIT %:    1.44125  MISS %:    98.5587   MPKI: 28.7326
L2C COMMIT LOAD NON_SPEC    ACCESS:     121099  HIT:      37196  MISS:      83903  HIT %:    30.7154  MISS %:    69.2846   MPKI: 0.419515
L2C LOAD TRANSLATION NON_SPEC    ACCESS:     303806  HIT:     258661  MISS:      45145  HIT %:    85.1402  MISS %:    14.8598   MPKI: 0.225725
L2C TRANSLATION FROM L1D PREFETCHER NON_SPEC    ACCESS:         10  HIT:          9  MISS:          1  HIT %:         90  MISS %:         10   MPKI: 5e-06
L2C PREFETCH  REQUESTED:          0  ISSUED:          0  USEFUL:      29062  USELESS:    1625153
L2C USEFUL LOAD PREFETCHES:      29062 PREFETCH ISSUED TO LOWER LEVEL:    1672471  ACCURACY: 1.73767
L2C TIMELY PREFETCHES:      29062 LATE PREFETCHES: 18579 DROPPED PREFETCHES: 0
L2C COMMIT LATE PREFETCHES: 0 MISSED OPPORTUNITY: 0 LATE IN PQ: 0 UNCOVERED: 0
L2C COMMIT LATE MSHR PREFETCHES: 0
L2C MPKI TOTAL: 34.9721 MSHR LATE: 0.092895 PQ LATE: 0 COMMIT LATE: 0 MISSED OPPORTUNITY: 0 UNCOVERED: 0
L2C PREFETCHES SAME FILL-ORIGIN LEVEL: 54768 DIFFERENT FILL-ORIGIN LEVEL: 0
L2C AVERAGE MISS LATENCY: 66.4638 cycles
L2C AVERAGE MISS LATENCY LOAD: 87.5747 cycles
L2C AVERAGE MISS LATENCY PREFETCH: 188.745 cycles
L2C AVERAGE MSHR OCCUPANCY: 2.43075
L2C MSHR FULL: 0
L2C RQ	ACCESS:   10123907	FORWARD:          0	MERGED:          0	TO_CACHE:   10123878
L2C WQ	ACCESS:    6663747	FORWARD:         29	MERGED:          1	TO_CACHE:    6663746
L2C PQ	ACCESS:    1721760	FORWARD:          0	MERGED:         14	TO_CACHE:    1721746

L2C Instructions Evicting Data 0
L2C Translations Evicting Data 44866
L2C Data Evicting Data 3055685
L2C Instructions Evicting Instructions 0
L2C Translations Evicting Instructions 0
L2C Data Evicting Instructions 0
L2C Instructions Evicting Translations 0
L2C Translations Evicting Translations 280
L2C Data Evicting Translations 15026
L2C Dense regions hint from L2: 0
PSCL5 SPEC fills:          0  NON-SPEC fills:          0
PSCL5 Test counter :          0
PSCL5 Leapfrog:          0
PSCL5 MSHR merge:          0
PSCL5 TOTAL     ACCESS:          0  HIT:          0  MISS:          0  HIT %:       -nan  MISS %:       -nan   MPKI: 0
PSCL5 PREFETCH  REQUESTED:          0  ISSUED:          0  USEFUL:          0  USELESS:          0
PSCL5 USEFUL LOAD PREFETCHES:          0 PREFETCH ISSUED TO LOWER LEVEL:          0  ACCURACY: -nan
PSCL5 TIMELY PREFETCHES:          0 LATE PREFETCHES: 0 DROPPED PREFETCHES: 0
PSCL5 COMMIT LATE PREFETCHES: 0 MISSED OPPORTUNITY: 0 LATE IN PQ: 0 UNCOVERED: 0
PSCL5 COMMIT LATE MSHR PREFETCHES: 0
PSCL5 MPKI TOTAL: 0 MSHR LATE: 0 PQ LATE: 0 COMMIT LATE: 0 MISSED OPPORTUNITY: 0 UNCOVERED: 0
PSCL5 PREFETCHES SAME FILL-ORIGIN LEVEL: 0 DIFFERENT FILL-ORIGIN LEVEL: 0

PSCL4 SPEC fills:          0  NON-SPEC fills:          0
PSCL4 Test counter :          0
PSCL4 Leapfrog:          0
PSCL4 MSHR merge:          0
PSCL4 TOTAL     ACCESS:          0  HIT:          0  MISS:          0  HIT %:       -nan  MISS %:       -nan   MPKI: 0
PSCL4 PREFETCH  REQUESTED:          0  ISSUED:          0  USEFUL:          0  USELESS:          0
PSCL4 USEFUL LOAD PREFETCHES:          0 PREFETCH ISSUED TO LOWER LEVEL:          0  ACCURACY: -nan
PSCL4 TIMELY PREFETCHES:          0 LATE PREFETCHES: 0 DROPPED PREFETCHES: 0
PSCL4 COMMIT LATE PREFETCHES: 0 MISSED OPPORTUNITY: 0 LATE IN PQ: 0 UNCOVERED: 0
PSCL4 COMMIT LATE MSHR PREFETCHES: 0
PSCL4 MPKI TOTAL: 0 MSHR LATE: 0 PQ LATE: 0 COMMIT LATE: 0 MISSED OPPORTUNITY: 0 UNCOVERED: 0
PSCL4 PREFETCHES SAME FILL-ORIGIN LEVEL: 0 DIFFERENT FILL-ORIGIN LEVEL: 0

PSCL3 SPEC fills:          0  NON-SPEC fills:          0
PSCL3 Test counter :          0
PSCL3 Leapfrog:          0
PSCL3 MSHR merge:          0
PSCL3 TOTAL     ACCESS:          0  HIT:          0  MISS:          0  HIT %:       -nan  MISS %:       -nan   MPKI: 0
PSCL3 PREFETCH  REQUESTED:          0  ISSUED:          0  USEFUL:          0  USELESS:          0
PSCL3 USEFUL LOAD PREFETCHES:          0 PREFETCH ISSUED TO LOWER LEVEL:          0  ACCURACY: -nan
PSCL3 TIMELY PREFETCHES:          0 LATE PREFETCHES: 0 DROPPED PREFETCHES: 0
PSCL3 COMMIT LATE PREFETCHES: 0 MISSED OPPORTUNITY: 0 LATE IN PQ: 0 UNCOVERED: 0
PSCL3 COMMIT LATE MSHR PREFETCHES: 0
PSCL3 MPKI TOTAL: 0 MSHR LATE: 0 PQ LATE: 0 COMMIT LATE: 0 MISSED OPPORTUNITY: 0 UNCOVERED: 0
PSCL3 PREFETCHES SAME FILL-ORIGIN LEVEL: 0 DIFFERENT FILL-ORIGIN LEVEL: 0

PSCL2 SPEC fills:          0  NON-SPEC fills:          0
PSCL2 Test counter :          0
PSCL2 Leapfrog:          0
PSCL2 MSHR merge:          0
PSCL2 TOTAL     ACCESS:          0  HIT:          0  MISS:          0  HIT %:       -nan  MISS %:       -nan   MPKI: 0
PSCL2 PREFETCH  REQUESTED:          0  ISSUED:          0  USEFUL:          0  USELESS:          0
PSCL2 USEFUL LOAD PREFETCHES:          0 PREFETCH ISSUED TO LOWER LEVEL:          0  ACCURACY: -nan
PSCL2 TIMELY PREFETCHES:          0 LATE PREFETCHES: 0 DROPPED PREFETCHES: 0
PSCL2 COMMIT LATE PREFETCHES: 0 MISSED OPPORTUNITY: 0 LATE IN PQ: 0 UNCOVERED: 0
PSCL2 COMMIT LATE MSHR PREFETCHES: 0
PSCL2 MPKI TOTAL: 0 MSHR LATE: 0 PQ LATE: 0 COMMIT LATE: 0 MISSED OPPORTUNITY: 0 UNCOVERED: 0
PSCL2 PREFETCHES SAME FILL-ORIGIN LEVEL: 0 DIFFERENT FILL-ORIGIN LEVEL: 0

LLC SPEC fills:          0  NON-SPEC fills:     453020
LLC Test counter :          0
LLC Leapfrog:          0
LLC MSHR merge:          0
LLC TOTAL     ACCESS:   15044402  HIT:    7932209  MISS:    7112193  HIT %:    52.7253  MISS %:    47.2747   MPKI: 35.561
LLC LOAD      TOTAL       ACCESS:    6975814  HIT:    4191627  MISS:    2784187  HIT %:     60.088  MISS %:     39.912   MPKI: 13.9209
LLC LOAD      NON_SPEC    ACCESS:    1164785  HIT:     711765  MISS:     453020  HIT %:     61.107  MISS %:     38.893   MPKI: 2.2651
LLC LOAD      SPEC        ACCESS:    5811029  HIT:    3479862  MISS:    2331167  HIT %:    59.8837  MISS %:    40.1163   MPKI: 11.6558
LLC RFO       NON_SPEC    ACCESS:     167990  HIT:      64648  MISS:     103342  HIT %:    38.4832  MISS %:    61.5168   MPKI: 0.51671
LLC PREFETCH  NON_SPEC    ACCESS:    1672468  HIT:     171358  MISS:    1501110  HIT %:    10.2458  MISS %:    89.7542   MPKI: 7.50555
LLC WRITEBACK NON_SPEC    ACCESS:     299544  HIT:     293987  MISS:       5557  HIT %:    98.1448  MISS %:    1.85515   MPKI: 0.027785
LLC CLEAN_EVICTION NON_SPEC    ACCESS:    5799565  HIT:    3134363  MISS:    2665202  HIT %:    54.0448  MISS %:    45.9552   MPKI: 13.326
LLC COMMIT LOAD NON_SPEC    ACCESS:      83875  HIT:      64870  MISS:      19005  HIT %:    77.3413  MISS %:    22.6587   MPKI: 0.095025
LLC LOAD TRANSLATION NON_SPEC    ACCESS:      45145  HIT:      11355  MISS:      33790  HIT %:    25.1523  MISS %:    74.8477   MPKI: 0.16895
LLC TRANSLATION FROM L1D PREFETCHER NON_SPEC    ACCESS:          1  HIT:          1  MISS:          0  HIT %:        100  MISS %:          0   MPKI: 0
LLC PREFETCH  REQUESTED:          0  ISSUED:          0  USEFUL:      75462  USELESS:    1426014
LLC USEFUL LOAD PREFETCHES:      75462 PREFETCH ISSUED TO LOWER LEVEL:    1501111  ACCURACY: 5.02708
LLC TIMELY PREFETCHES:      75462 LATE PREFETCHES: 0 DROPPED PREFETCHES: 0
LLC COMMIT LATE PREFETCHES: 0 MISSED OPPORTUNITY: 0 LATE IN PQ: 0 UNCOVERED: 0
LLC COMMIT LATE MSHR PREFETCHES: 0
LLC MPKI TOTAL: 13.9209 MSHR LATE: 0 PQ LATE: 0 COMMIT LATE: 0 MISSED OPPORTUNITY: 0 UNCOVERED: 0
LLC PREFETCHES SAME FILL-ORIGIN LEVEL: 0 DIFFERENT FILL-ORIGIN LEVEL: 0
LLC AVERAGE MISS LATENCY: 107.181 cycles
LLC AVERAGE MISS LATENCY LOAD: 161.552 cycles
LLC AVERAGE MISS LATENCY PREFETCH: 179.619 cycles
LLC AVERAGE MSHR OCCUPANCY: 1.73638
LLC MSHR FULL: 0
LLC RQ	ACCESS:    7272889	FORWARD:          0	MERGED:          0	TO_CACHE:    7272827
LLC WQ	ACCESS:    6099111	FORWARD:         64	MERGED:          0	TO_CACHE:    6099111
LLC PQ	ACCESS:    1672471	FORWARD:          0	MERGED:          0	TO_CACHE:    1672469

LLC Dense regions hint to LLC: 0

RAW hits: 64263
Loads Generated: 76805717
Loads sent to L1D: 76741454
Stores Generated: 2216772
Stores sent to L1D: 2216772
Major fault: 0 Minor fault: 37080
Allocated PAGES: 37080
Total Load insts: 93562174
Total Non-spec loads: 6267012
Percentage of speculative loads: 93.3018

LeapFrogging counter: 283173
Commit hits: 24169772 miss: 47355971
Commit hit %: 33.7917 miss %: 66.2083
Commits not translated: 0
Loads retired: 9257560
Stores retired: 2216772
Cache fills: 9257561
L1D response latency: 78.9311 cycles
Load retirement latency: 159.525 cycles
OOO test counter: 0
Discarded buffer inserts: 24169772 hits: 24138 hit %: 0.0998685
Filter prediction accuracy: 99.972
Speculative prefetch buffer size: 0
CPU 0 L1D PC-based stride prefetcher final stats
Degree: 3

DRAM Statistics
 CHANNEL 0
 RQ ROW_BUFFER_HIT:     558332  ROW_BUFFER_MISS:    3882100
 DBUS_CONGESTED:       2140
 WQ ROW_BUFFER_HIT:    1307833  ROW_BUFFER_MISS:    1743771  FULL:       1302

 AVG_CONGESTED_CYCLE: 5
 All warmup complete: 2
Channel 0 Bank busy for read cycles: 0
Channel 0 Bank busy for write cycles: 0
Channel 0
Rank 0
0banks busy for read cycles: 5562716
0banks busy for write cycles: 58114
1banks busy for read cycles: 147021266
1banks busy for write cycles: 10706605
2banks busy for read cycles: 88600925
2banks busy for write cycles: 15661524
3banks busy for read cycles: 47438574
3banks busy for write cycles: 19233905
4banks busy for read cycles: 21891744
4banks busy for write cycles: 21331722
5banks busy for read cycles: 6097436
5banks busy for write cycles: 22268944
6banks busy for read cycles: 1812015
6banks busy for write cycles: 22742048
7banks busy for read cycles: 764947
7banks busy for write cycles: 23621737
8banks busy for read cycles: 1404896
8banks busy for write cycles: 23273190

CPU 0 Branch Prediction Accuracy: 97.7909% MPKI: 3.2859 Average ROB Occupancy at Mispredict: 162.232
Branch types
NOT_BRANCH: 170250761 85.1254%
BRANCH_DIRECT_JUMP: 9225403 4.6127%
BRANCH_INDIRECT: 0 0%
BRANCH_CONDITIONAL: 20520883 10.2604%
BRANCH_DIRECT_CALL: 1314 0.000657%
BRANCH_INDIRECT_CALL: 0 0%
BRANCH_RETURN: 1314 0.000657%
BRANCH_OTHER: 0 0%

DRAM PAGES: 1048576
Allocated PAGES: 37080
