
*** ChampSim Multicore Out-of-Order Simulator ***

Warmup Instructions: 50000000
Simulation Instructions: 200000000
Number of CPUs: 1
LLC sets: 2048
LLC ways: 16
L0D sets: 16
L0D ways: 2
ROB size: 352
LQ size: 128
SQ size: 72
Secure Berti: OFF
Berti: OFF
Berti Fill: OFF
On commit prefetching: OFF
Hit-based filter: OFF
Time-guarding: ON
Free-slotting: ON
Leap-frogging: ON
Train prefetcher on L0D bypass: OFF
No translation penalty for prefetchers: OFF
Prefetch to L0D only: OFF
Prefetch to L1D only: OFF
Clean evictions: ON
Commit loads: ON
Commit write: ON
Fill commit loads to L2C, LLC: ON
DRAM IO FREQUENCY: 6400
ROB SIZE: 352
Off-chip DRAM Size: 4096 MB Channels: 1 Width: 64-bit Data Rate: 6400 MT/s
CPU 0 runs /home/sumon/secure_berti/GhostMinion/../../traces/spec/600.perlbench_s-570B.champsimtrace.xz
.xz
BTB has LRU replacement policy
ITLB has LRU replacement policy
DTLB has LRU replacement policy
STLB has LRU replacement policy
L1I has LRU replacement policy
L0D has LRU replacement policy
L1D has LRU replacement policy
Bingo PHT WAYS: 16 and PHT_SIZE: 16384
L2C has LRU replacement policy
LLC has LRU replacement policy
Heartbeat CPU 0 instructions: 10000003 cycles: 3771148 heartbeat IPC: 2.65171 cumulative IPC: 2.65171 (Simulation time: 0 hr 1 min 10 sec) 
Heartbeat CPU 0 instructions: 20000000 cycles: 7478162 heartbeat IPC: 2.69759 cumulative IPC: 2.67445 (Simulation time: 0 hr 2 min 23 sec) 
Heartbeat CPU 0 instructions: 30000000 cycles: 11410273 heartbeat IPC: 2.54316 cumulative IPC: 2.62921 (Simulation time: 0 hr 3 min 34 sec) 
Heartbeat CPU 0 instructions: 40000002 cycles: 15307345 heartbeat IPC: 2.56603 cumulative IPC: 2.61312 (Simulation time: 0 hr 4 min 45 sec) 
Heartbeat CPU 0 instructions: 50000002 cycles: 18986363 heartbeat IPC: 2.71812 cumulative IPC: 2.63347 (Simulation time: 0 hr 5 min 58 sec) 

Warmup complete CPU 0 instructions: 50000002 cycles: 18986363 (Simulation time: 0 hr 5 min 58 sec) 

Heartbeat CPU 0 instructions: 60000000 cycles: 31921158 heartbeat IPC: 0.773108 cumulative IPC: 0.773108 (Simulation time: 0 hr 7 min 19 sec) 
Heartbeat CPU 0 instructions: 70000000 cycles: 51944535 heartbeat IPC: 0.499416 cumulative IPC: 0.60683 (Simulation time: 0 hr 8 min 44 sec) 
Heartbeat CPU 0 instructions: 80000002 cycles: 73163845 heartbeat IPC: 0.471269 cumulative IPC: 0.553736 (Simulation time: 0 hr 10 min 11 sec) 
Heartbeat CPU 0 instructions: 90000003 cycles: 97861585 heartbeat IPC: 0.404895 cumulative IPC: 0.50713 (Simulation time: 0 hr 11 min 41 sec) 
Heartbeat CPU 0 instructions: 100000002 cycles: 111602543 heartbeat IPC: 0.727751 cumulative IPC: 0.539862 (Simulation time: 0 hr 13 min 2 sec) 
Heartbeat CPU 0 instructions: 110000000 cycles: 125213221 heartbeat IPC: 0.734717 cumulative IPC: 0.564829 (Simulation time: 0 hr 14 min 24 sec) 
Heartbeat CPU 0 instructions: 120000003 cycles: 139468024 heartbeat IPC: 0.701518 cumulative IPC: 0.581001 (Simulation time: 0 hr 15 min 47 sec) 
Heartbeat CPU 0 instructions: 130000000 cycles: 153523338 heartbeat IPC: 0.711474 cumulative IPC: 0.594632 (Simulation time: 0 hr 17 min 10 sec) 
Heartbeat CPU 0 instructions: 140000003 cycles: 178530145 heartbeat IPC: 0.399891 cumulative IPC: 0.564108 (Simulation time: 0 hr 18 min 40 sec) 
Heartbeat CPU 0 instructions: 150000001 cycles: 202107759 heartbeat IPC: 0.424131 cumulative IPC: 0.546086 (Simulation time: 0 hr 20 min 13 sec) 
Heartbeat CPU 0 instructions: 160000001 cycles: 221261574 heartbeat IPC: 0.522089 cumulative IPC: 0.543814 (Simulation time: 0 hr 21 min 41 sec) 
Heartbeat CPU 0 instructions: 170000001 cycles: 236008847 heartbeat IPC: 0.678091 cumulative IPC: 0.552938 (Simulation time: 0 hr 23 min 6 sec) 
Heartbeat CPU 0 instructions: 180000000 cycles: 254155811 heartbeat IPC: 0.551056 cumulative IPC: 0.552793 (Simulation time: 0 hr 24 min 33 sec) 
Heartbeat CPU 0 instructions: 190000001 cycles: 279275973 heartbeat IPC: 0.398087 cumulative IPC: 0.537862 (Simulation time: 0 hr 26 min 6 sec) 
Heartbeat CPU 0 instructions: 200000001 cycles: 303179185 heartbeat IPC: 0.418354 cumulative IPC: 0.527811 (Simulation time: 0 hr 27 min 40 sec) 
Heartbeat CPU 0 instructions: 210000000 cycles: 321541649 heartbeat IPC: 0.544589 cumulative IPC: 0.528829 (Simulation time: 0 hr 29 min 5 sec) 
Heartbeat CPU 0 instructions: 220000000 cycles: 336058597 heartbeat IPC: 0.68885 cumulative IPC: 0.536155 (Simulation time: 0 hr 30 min 28 sec) 
Heartbeat CPU 0 instructions: 230000000 cycles: 349485780 heartbeat IPC: 0.744758 cumulative IPC: 0.54463 (Simulation time: 0 hr 31 min 48 sec) 
Heartbeat CPU 0 instructions: 240000002 cycles: 363713422 heartbeat IPC: 0.702857 cumulative IPC: 0.551161 (Simulation time: 0 hr 33 min 10 sec) 
Heartbeat CPU 0 instructions: 250000003 cycles: 378458456 heartbeat IPC: 0.678195 cumulative IPC: 0.556371 (Simulation time: 0 hr 34 min 33 sec) 
Finished CPU 0 instructions: 200000001 cycles: 359472093 cumulative IPC: 0.556371 (Simulation time: 0 hr 34 min 33 sec) 
 Instruction ID: 250000017

ChampSim completed all CPUs

Region of Interest Statistics

CPU 0 cumulative IPC: 0.556371 instructions: 200000001 cycles: 359472093
ITLB SPEC fills:          0  NON-SPEC fills:          0
ITLB Test counter :          0
ITLB Leapfrog:          0
ITLB MSHR merge:          0
ITLB TOTAL     ACCESS:   31177114  HIT:   31118243  MISS:      58871  HIT %:    99.8112  MISS %:   0.188828   MPKI: 0.294355
ITLB LOAD TRANSLATION NON_SPEC    ACCESS:   31177114  HIT:   31118243  MISS:      58871  HIT %:    99.8112  MISS %:   0.188828   MPKI: 0.294355
ITLB PREFETCH  REQUESTED:          0  ISSUED:          0  USEFUL:          0  USELESS:          0
ITLB USEFUL LOAD PREFETCHES:          0 PREFETCH ISSUED TO LOWER LEVEL:          0  ACCURACY: -nan
ITLB TIMELY PREFETCHES:          0 LATE PREFETCHES: 0 DROPPED PREFETCHES: 0
ITLB COMMIT LATE PREFETCHES: 0 NORMAL LATE: 0 MISSED OPPORTUNITY: 0 UNCOVERED: 0
ITLB PREFETCHES SAME FILL-ORIGIN LEVEL: 0 DIFFERENT FILL-ORIGIN LEVEL: 0
ITLB AVERAGE MISS LATENCY: 11.0283 cycles
ITLB AVERAGE MISS LATENCY LOAD: -nan cycles
ITLB AVERAGE MISS LATENCY PREFETCH: -nan cycles
ITLB AVERAGE MSHR OCCUPANCY: 0.00104004
ITLB MSHR FULL: 0
ITLB RQ	ACCESS:   35143855	FORWARD:          0	MERGED:    3945174	TO_CACHE:   31198681

DTLB SPEC fills:          0  NON-SPEC fills:          0
DTLB Test counter :          0
DTLB Leapfrog:          0
DTLB MSHR merge:          0
DTLB TOTAL     ACCESS:   57184072  HIT:   56646296  MISS:     537776  HIT %:    99.0596  MISS %:    0.94043   MPKI: 2.68888
DTLB LOAD TRANSLATION NON_SPEC    ACCESS:   57184072  HIT:   56646296  MISS:     537776  HIT %:    99.0596  MISS %:    0.94043   MPKI: 2.68888
DTLB PREFETCH  REQUESTED:          0  ISSUED:          0  USEFUL:          0  USELESS:          0
DTLB USEFUL LOAD PREFETCHES:          0 PREFETCH ISSUED TO LOWER LEVEL:          0  ACCURACY: -nan
DTLB TIMELY PREFETCHES:          0 LATE PREFETCHES: 0 DROPPED PREFETCHES: 0
DTLB COMMIT LATE PREFETCHES: 0 NORMAL LATE: 0 MISSED OPPORTUNITY: 0 UNCOVERED: 0
DTLB PREFETCHES SAME FILL-ORIGIN LEVEL: 0 DIFFERENT FILL-ORIGIN LEVEL: 0
DTLB AVERAGE MISS LATENCY: 15.6098 cycles
DTLB AVERAGE MISS LATENCY LOAD: -nan cycles
DTLB AVERAGE MISS LATENCY PREFETCH: -nan cycles
DTLB AVERAGE MSHR OCCUPANCY: 0.0136958
DTLB MSHR FULL: 1.34611e-06
DTLB RQ	ACCESS:   79039197	FORWARD:          0	MERGED:   21837574	TO_CACHE:   57201623

STLB SPEC fills:          0  NON-SPEC fills:          0
STLB Test counter :          0
STLB Leapfrog:          0
STLB MSHR merge:          0
STLB TOTAL     ACCESS:     596647  HIT:     572938  MISS:      23709  HIT %:    96.0263  MISS %:    3.97371   MPKI: 0.118545
STLB LOAD TRANSLATION NON_SPEC    ACCESS:     596647  HIT:     572938  MISS:      23709  HIT %:    96.0263  MISS %:    3.97371   MPKI: 0.118545
STLB PREFETCH  REQUESTED:          0  ISSUED:          0  USEFUL:          0  USELESS:          0
STLB USEFUL LOAD PREFETCHES:          0 PREFETCH ISSUED TO LOWER LEVEL:          0  ACCURACY: -nan
STLB TIMELY PREFETCHES:          0 LATE PREFETCHES: 0 DROPPED PREFETCHES: 0
STLB COMMIT LATE PREFETCHES: 0 NORMAL LATE: 0 MISSED OPPORTUNITY: 0 UNCOVERED: 0
STLB PREFETCHES SAME FILL-ORIGIN LEVEL: 0 DIFFERENT FILL-ORIGIN LEVEL: 0
STLB AVERAGE MISS LATENCY: 154.308 cycles
STLB AVERAGE MISS LATENCY LOAD: -nan cycles
STLB AVERAGE MISS LATENCY PREFETCH: -nan cycles
STLB AVERAGE MSHR OCCUPANCY: 0.00660189
STLB MSHR FULL: 0
STLB RQ	ACCESS:     596647	FORWARD:          0	MERGED:          0	TO_CACHE:     596647

STLB Hit, L1D data hit: 0
STLB Hit, L2C data hit: 0
STLB Hit, LLC data hit: 0
STLB Hit, LLC data miss: 0
STLB STLB hints to L2: 0
L0D SPEC fills:   22686322  NON-SPEC fills:          0
L0D TimeGuard Request with older TS:      57910 Restricted eviction:      52758 read:      37317
L0D Test counter :          0
L0D Leapfrog:          0
L0D MSHR merge:     624659
L0D TOTAL     ACCESS:   38673905  HIT:    3358450  MISS:   35315455  HIT %:    8.68402  MISS %:     91.316   MPKI: 176.577
L0D LOAD      TOTAL       ACCESS:   38673905  HIT:    3358450  MISS:   35315455  HIT %:    8.68402  MISS %:     91.316   MPKI: 176.577
L0D LOAD      NON_SPEC    ACCESS:   12724607  HIT:     148226  MISS:   12576381  HIT %:    1.16488  MISS %:    98.8351   MPKI: 62.8819
L0D LOAD      SPEC        ACCESS:   25949298  HIT:    3210224  MISS:   22739074  HIT %:    12.3711  MISS %:    87.6289   MPKI: 113.695
L0D PREFETCH  REQUESTED:          0  ISSUED:          0  USEFUL:          0  USELESS:          0
L0D USEFUL LOAD PREFETCHES:          0 PREFETCH ISSUED TO LOWER LEVEL:          0  ACCURACY: -nan
L0D TIMELY PREFETCHES:          0 LATE PREFETCHES: 0 DROPPED PREFETCHES: 0
L0D COMMIT LATE PREFETCHES: 0 NORMAL LATE: 0 MISSED OPPORTUNITY: 0 UNCOVERED: 35315455
L0D PREFETCHES SAME FILL-ORIGIN LEVEL: 0 DIFFERENT FILL-ORIGIN LEVEL: 0
L0D AVERAGE MISS LATENCY: 5.85635 cycles
L0D AVERAGE MISS LATENCY LOAD: 5.85635 cycles
L0D AVERAGE MISS LATENCY PREFETCH: -nan cycles
L0D AVERAGE MSHR OCCUPANCY: 0.581591
L0D MSHR FULL: 5.75082e-06
L0D RQ	ACCESS:   46805933	FORWARD:          0	MERGED:    7507374	TO_CACHE:   39298559
L0D WQ	ACCESS:   39740638	FORWARD:          0	MERGED:          0	TO_CACHE:   39740638

L1D SPEC fills:          0  NON-SPEC fills:     224211
L1D Test counter :          0
L1D Leapfrog:          0
L1D MSHR merge:       2885
L1D TOTAL     ACCESS:  104591852  HIT:  103708426  MISS:     883426  HIT %:    99.1554  MISS %:   0.844641   MPKI: 4.41713
L1D LOAD      TOTAL       ACCESS:   35312570  HIT:   34782267  MISS:     530303  HIT %:    98.4983  MISS %:    1.50174   MPKI: 2.65151
L1D LOAD      NON_SPEC    ACCESS:   12574447  HIT:   12350236  MISS:     224211  HIT %:    98.2169  MISS %:    1.78307   MPKI: 1.12105
L1D LOAD      SPEC        ACCESS:   22738123  HIT:   22432031  MISS:     306092  HIT %:    98.6538  MISS %:    1.34616   MPKI: 1.53046
L1D RFO       NON_SPEC    ACCESS:   38213583  HIT:   38165267  MISS:      48316  HIT %:    99.8736  MISS %:   0.126437   MPKI: 0.24158
L1D COMMIT LOAD NON_SPEC    ACCESS:    8480611  HIT:    8477470  MISS:       3141  HIT %:     99.963  MISS %:  0.0370374   MPKI: 0.015705
L1D COMMIT WRITE NON_SPEC    ACCESS:   22585088  HIT:   22283422  MISS:     301666  HIT %:    98.6643  MISS %:    1.33569   MPKI: 1.50833
L1D PREFETCH  REQUESTED:          0  ISSUED:          0  USEFUL:          0  USELESS:          0
L1D USEFUL LOAD PREFETCHES:          0 PREFETCH ISSUED TO LOWER LEVEL:          0  ACCURACY: -nan
L1D TIMELY PREFETCHES:          0 LATE PREFETCHES: 0 DROPPED PREFETCHES: 0
L1D COMMIT LATE PREFETCHES: 0 NORMAL LATE: 0 MISSED OPPORTUNITY: 0 UNCOVERED: 530303
L1D PREFETCHES SAME FILL-ORIGIN LEVEL: 0 DIFFERENT FILL-ORIGIN LEVEL: 0
L1D AVERAGE MISS LATENCY: 30.9907 cycles
L1D AVERAGE MISS LATENCY LOAD: 46.5888 cycles
L1D AVERAGE MISS LATENCY PREFETCH: -nan cycles
L1D AVERAGE MSHR OCCUPANCY: 0.017969
L1D MSHR FULL: 1.83577e-05
L1D RQ	ACCESS:   46710293	FORWARD:          0	MERGED:    2578939	TO_CACHE:   43796171
L1D WQ	ACCESS:   62399923	FORWARD:     335183	MERGED:    1506292	TO_CACHE:   60893631

L1D UNIQUE REGIONS ACCESSED: 0
L1D REGIONS CONFLICTS: 0
L1D Cross Page Prefetch Requests: 0
L1D Same Page Prefetch Requests: 0
L1D ROI Sum of L1D PQ occupancy: 0
L1D PREFETCHES PUSHED FROM L2C: 0
L1I SPEC fills:          0  NON-SPEC fills:          0
L1I Test counter :          0
L1I Leapfrog:          0
L1I MSHR merge:     221012
L1I TOTAL     ACCESS:   34922843  HIT:   34048492  MISS:     874351  HIT %:    97.4963  MISS %:    2.50367   MPKI: 4.37175
L1I LOAD      TOTAL       ACCESS:   34922843  HIT:   34048492  MISS:     874351  HIT %:    97.4963  MISS %:    2.50367   MPKI: 4.37175
L1I LOAD      NON_SPEC    ACCESS:   34922843  HIT:   34048492  MISS:     874351  HIT %:    97.4963  MISS %:    2.50367   MPKI: 4.37175
L1I PREFETCH  REQUESTED:          0  ISSUED:          0  USEFUL:          0  USELESS:          0
L1I USEFUL LOAD PREFETCHES:          0 PREFETCH ISSUED TO LOWER LEVEL:          0  ACCURACY: -nan
L1I TIMELY PREFETCHES:          0 LATE PREFETCHES: 0 DROPPED PREFETCHES: 0
L1I COMMIT LATE PREFETCHES: 0 NORMAL LATE: 0 MISSED OPPORTUNITY: 0 UNCOVERED: 874351
L1I PREFETCHES SAME FILL-ORIGIN LEVEL: 0 DIFFERENT FILL-ORIGIN LEVEL: 0
L1I AVERAGE MISS LATENCY: 19.0285 cycles
L1I AVERAGE MISS LATENCY LOAD: 19.0285 cycles
L1I AVERAGE MISS LATENCY PREFETCH: -nan cycles
L1I AVERAGE MSHR OCCUPANCY: 0.0331482
L1I MSHR FULL: 0
L1I RQ	ACCESS:   55987817	FORWARD:          0	MERGED:   20843962	TO_CACHE:   35143855

BTB SPEC fills:          0  NON-SPEC fills:          0
BTB Test counter :          0
BTB Leapfrog:          0
BTB MSHR merge:          0
BTB TOTAL     ACCESS:   25984963  HIT:   24489037  MISS:    1495926  HIT %:    94.2431  MISS %:    5.75689   MPKI: 7.47963
BTB BRANCH_DIRECT_JUMP	ACCESS:    4141047  HIT:    4130444  MISS:      10603
BTB BRANCH_INDIRECT	ACCESS:    1274734  HIT:     405661  MISS:     869073
BTB BRANCH_CONDITIONAL	ACCESS:   16683297  HIT:   16654181  MISS:      29116
BTB BRANCH_DIRECT_CALL	ACCESS:    1551808  HIT:    1544398  MISS:       7410
BTB BRANCH_INDIRECT_CALL	ACCESS:     391135  HIT:      53393  MISS:     337742
BTB BRANCH_RETURN	ACCESS:    1942942  HIT:    1700960  MISS:     241982
BTB BRANCH_OTHER ACCESS:          0  HIT:          0  MISS:          0

L2C SPEC fills:          0  NON-SPEC fills:      55270
L2C Test counter :          0
L2C Leapfrog:          0
L2C MSHR merge:       2132
L2C TOTAL     ACCESS:    2585792  HIT:    1951630  MISS:     634162  HIT %:    75.4751  MISS %:    24.5249   MPKI: 3.17081
L2C LOAD      TOTAL       ACCESS:    1404630  HIT:    1222267  MISS:     182363  HIT %:     87.017  MISS %:     12.983   MPKI: 0.911815
L2C LOAD      NON_SPEC    ACCESS:    1098562  HIT:     990462  MISS:     108100  HIT %:    90.1599  MISS %:    9.84014   MPKI: 0.5405
L2C LOAD      SPEC        ACCESS:     306068  HIT:     231805  MISS:      74263  HIT %:    75.7364  MISS %:    24.2636   MPKI: 0.371315
L2C RFO       NON_SPEC    ACCESS:      48316  HIT:      33409  MISS:      14907  HIT %:    69.1469  MISS %:    30.8531   MPKI: 0.074535
L2C PREFETCH  NON_SPEC    ACCESS:     542979  HIT:     198224  MISS:     344755  HIT %:    36.5068  MISS %:    63.4932   MPKI: 1.72377
L2C WRITEBACK NON_SPEC    ACCESS:      68996  HIT:      68363  MISS:        633  HIT %:    99.0826  MISS %:   0.917444   MPKI: 0.003165
L2C CLEAN_EVICTION NON_SPEC    ACCESS:     399241  HIT:     321283  MISS:      77958  HIT %:    80.4734  MISS %:    19.5266   MPKI: 0.38979
L2C COMMIT LOAD NON_SPEC    ACCESS:       3139  HIT:       2883  MISS:        256  HIT %:    91.8445  MISS %:    8.15546   MPKI: 0.00128
L2C LOAD TRANSLATION NON_SPEC    ACCESS:     118491  HIT:     105201  MISS:      13290  HIT %:     88.784  MISS %:     11.216   MPKI: 0.06645
L2C PREFETCH  REQUESTED:     548780  ISSUED:     548780  USEFUL:     117384  USELESS:     225364
L2C USEFUL LOAD PREFETCHES:     117384 PREFETCH ISSUED TO LOWER LEVEL:     346975  ACCURACY: 33.8307
L2C TIMELY PREFETCHES:     117384 LATE PREFETCHES: 2220 DROPPED PREFETCHES: 0
L2C COMMIT LATE PREFETCHES: 0 NORMAL LATE: 2220 MISSED OPPORTUNITY: 0 UNCOVERED: 180143
L2C PREFETCHES SAME FILL-ORIGIN LEVEL: 346975 DIFFERENT FILL-ORIGIN LEVEL: 0
L2C AVERAGE MISS LATENCY: 136.903 cycles
L2C AVERAGE MISS LATENCY LOAD: 122.487 cycles
L2C AVERAGE MISS LATENCY PREFETCH: 176.886 cycles
L2C AVERAGE MSHR OCCUPANCY: 0.320133
L2C MSHR FULL: 0
L2C RQ	ACCESS:    1574602	FORWARD:          0	MERGED:          0	TO_CACHE:    1574576
L2C WQ	ACCESS:     468237	FORWARD:         29	MERGED:          0	TO_CACHE:     468237
L2C PQ	ACCESS:     548780	FORWARD:          0	MERGED:          0	TO_CACHE:     548777

L2C Instructions Evicting Data 45448
L2C Translations Evicting Data 11644
L2C Data Evicting Data 366501
L2C Instructions Evicting Instructions 5788
L2C Translations Evicting Instructions 1331
L2C Data Evicting Instructions 37859
L2C Instructions Evicting Translations 1440
L2C Translations Evicting Translations 261
L2C Data Evicting Translations 9767
L2C Dense regions hint from L2: 0
PSCL5 SPEC fills:          0  NON-SPEC fills:          0
PSCL5 Test counter :          0
PSCL5 Leapfrog:          0
PSCL5 MSHR merge:          0
PSCL5 TOTAL     ACCESS:          0  HIT:          0  MISS:          0  HIT %:       -nan  MISS %:       -nan   MPKI: 0
PSCL5 PREFETCH  REQUESTED:          0  ISSUED:          0  USEFUL:          0  USELESS:          0
PSCL5 USEFUL LOAD PREFETCHES:          0 PREFETCH ISSUED TO LOWER LEVEL:          0  ACCURACY: -nan
PSCL5 TIMELY PREFETCHES:          0 LATE PREFETCHES: 0 DROPPED PREFETCHES: 0
PSCL5 COMMIT LATE PREFETCHES: 0 NORMAL LATE: 0 MISSED OPPORTUNITY: 0 UNCOVERED: 0
PSCL5 PREFETCHES SAME FILL-ORIGIN LEVEL: 0 DIFFERENT FILL-ORIGIN LEVEL: 0

PSCL4 SPEC fills:          0  NON-SPEC fills:          0
PSCL4 Test counter :          0
PSCL4 Leapfrog:          0
PSCL4 MSHR merge:          0
PSCL4 TOTAL     ACCESS:          0  HIT:          0  MISS:          0  HIT %:       -nan  MISS %:       -nan   MPKI: 0
PSCL4 PREFETCH  REQUESTED:          0  ISSUED:          0  USEFUL:          0  USELESS:          0
PSCL4 USEFUL LOAD PREFETCHES:          0 PREFETCH ISSUED TO LOWER LEVEL:          0  ACCURACY: -nan
PSCL4 TIMELY PREFETCHES:          0 LATE PREFETCHES: 0 DROPPED PREFETCHES: 0
PSCL4 COMMIT LATE PREFETCHES: 0 NORMAL LATE: 0 MISSED OPPORTUNITY: 0 UNCOVERED: 0
PSCL4 PREFETCHES SAME FILL-ORIGIN LEVEL: 0 DIFFERENT FILL-ORIGIN LEVEL: 0

PSCL3 SPEC fills:          0  NON-SPEC fills:          0
PSCL3 Test counter :          0
PSCL3 Leapfrog:          0
PSCL3 MSHR merge:          0
PSCL3 TOTAL     ACCESS:          0  HIT:          0  MISS:          0  HIT %:       -nan  MISS %:       -nan   MPKI: 0
PSCL3 PREFETCH  REQUESTED:          0  ISSUED:          0  USEFUL:          0  USELESS:          0
PSCL3 USEFUL LOAD PREFETCHES:          0 PREFETCH ISSUED TO LOWER LEVEL:          0  ACCURACY: -nan
PSCL3 TIMELY PREFETCHES:          0 LATE PREFETCHES: 0 DROPPED PREFETCHES: 0
PSCL3 COMMIT LATE PREFETCHES: 0 NORMAL LATE: 0 MISSED OPPORTUNITY: 0 UNCOVERED: 0
PSCL3 PREFETCHES SAME FILL-ORIGIN LEVEL: 0 DIFFERENT FILL-ORIGIN LEVEL: 0

PSCL2 SPEC fills:          0  NON-SPEC fills:          0
PSCL2 Test counter :          0
PSCL2 Leapfrog:          0
PSCL2 MSHR merge:          0
PSCL2 TOTAL     ACCESS:          0  HIT:          0  MISS:          0  HIT %:       -nan  MISS %:       -nan   MPKI: 0
PSCL2 PREFETCH  REQUESTED:          0  ISSUED:          0  USEFUL:          0  USELESS:          0
PSCL2 USEFUL LOAD PREFETCHES:          0 PREFETCH ISSUED TO LOWER LEVEL:          0  ACCURACY: -nan
PSCL2 TIMELY PREFETCHES:          0 LATE PREFETCHES: 0 DROPPED PREFETCHES: 0
PSCL2 COMMIT LATE PREFETCHES: 0 NORMAL LATE: 0 MISSED OPPORTUNITY: 0 UNCOVERED: 0
PSCL2 PREFETCHES SAME FILL-ORIGIN LEVEL: 0 DIFFERENT FILL-ORIGIN LEVEL: 0

LLC SPEC fills:          0  NON-SPEC fills:      44613
LLC Test counter :          0
LLC Leapfrog:          0
LLC MSHR merge:          0
LLC TOTAL     ACCESS:     768637  HIT:     286421  MISS:     482216  HIT %:    37.2635  MISS %:    62.7365   MPKI: 2.41108
LLC LOAD      TOTAL       ACCESS:     180230  HIT:      62886  MISS:     117344  HIT %:    34.8921  MISS %:    65.1079   MPKI: 0.58672
LLC LOAD      NON_SPEC    ACCESS:     107105  HIT:      44874  MISS:      62231  HIT %:    41.8972  MISS %:    58.1028   MPKI: 0.311155
LLC LOAD      SPEC        ACCESS:      73125  HIT:      18012  MISS:      55113  HIT %:    24.6318  MISS %:    75.3682   MPKI: 0.275565
LLC RFO       NON_SPEC    ACCESS:      14818  HIT:       5376  MISS:       9442  HIT %:    36.2802  MISS %:    63.7198   MPKI: 0.04721
LLC PREFETCH  NON_SPEC    ACCESS:     346972  HIT:      60108  MISS:     286864  HIT %:    17.3236  MISS %:    82.6764   MPKI: 1.43432
LLC WRITEBACK NON_SPEC    ACCESS:      25022  HIT:      24551  MISS:        471  HIT %:    98.1177  MISS %:    1.88234   MPKI: 0.002355
LLC CLEAN_EVICTION NON_SPEC    ACCESS:     188049  HIT:     127000  MISS:      61049  HIT %:    67.5356  MISS %:    32.4644   MPKI: 0.305245
LLC COMMIT LOAD NON_SPEC    ACCESS:        256  HIT:        141  MISS:        115  HIT %:    55.0781  MISS %:    44.9219   MPKI: 0.000575
LLC LOAD TRANSLATION NON_SPEC    ACCESS:      13290  HIT:       6359  MISS:       6931  HIT %:     47.848  MISS %:     52.152   MPKI: 0.034655
LLC PREFETCH  REQUESTED:          0  ISSUED:          0  USEFUL:       7014  USELESS:     259183
LLC USEFUL LOAD PREFETCHES:       7014 PREFETCH ISSUED TO LOWER LEVEL:     286864  ACCURACY: 2.44506
LLC TIMELY PREFETCHES:       7014 LATE PREFETCHES: 0 DROPPED PREFETCHES: 0
LLC COMMIT LATE PREFETCHES: 0 NORMAL LATE: 0 MISSED OPPORTUNITY: 0 UNCOVERED: 117344
LLC PREFETCHES SAME FILL-ORIGIN LEVEL: 0 DIFFERENT FILL-ORIGIN LEVEL: 0
LLC AVERAGE MISS LATENCY: 147.165 cycles
LLC AVERAGE MISS LATENCY LOAD: 148.492 cycles
LLC AVERAGE MISS LATENCY PREFETCH: 177.436 cycles
LLC AVERAGE MSHR OCCUPANCY: 0.496035
LLC MSHR FULL: 0
LLC RQ	ACCESS:     208596	FORWARD:          0	MERGED:          0	TO_CACHE:     208594
LLC WQ	ACCESS:     213071	FORWARD:          5	MERGED:          0	TO_CACHE:     213071
LLC PQ	ACCESS:     346975	FORWARD:          0	MERGED:          0	TO_CACHE:     346972

LLC Dense regions hint to LLC: 0

RAW hits: 3025302
Loads Generated: 49831234
Loads sent to L1D: 46805933
Stores Generated: 39740622
Stores sent to L1D: 39740638
Major fault: 0 Minor fault: 5924
Allocated PAGES: 5924
Total Load insts: 55962202
Total Non-spec loads: 13642250
Percentage of speculative loads: 75.6224

LeapFrogging counter: 187
Commit hits: 22659285 miss: 11394841
Commit hit %: 66.539 miss %: 33.461
Commits not translated: 0
Loads retired: 530303
Stores retired: 39740638
Cache fills: 530303
L1D response latency: 46.5888 cycles
Load retirement latency: 79.8855 cycles
OOO test counter: 0
Discarded buffer inserts: 22659285 hits: 4561 hit %: 0.0201286
Filter prediction accuracy: -nan
[Bingo] PHT Access: 123309
[Bingo] PHT Hit PC+Addr: 41349
[Bingo] PHT Hit PC+Offs: 55606
[Bingo] PHT Miss: 26354
[Bingo] Prefetch PC+Addr: 0
[Bingo] Prefetch PC+Offs: 0
[Bingo] Useful PC+Addr: 0
[Bingo] Useful PC+Offs: 0
[Bingo] Useless PC+Addr: 0
[Bingo] Useless PC+Offs: 0
[Bingo] L1 Prefetch per Region: 0
[Bingo] L2 Prefetch per Region: 6.80019
[Bingo] L3 Prefetch per Region: 0
[Bingo] No Prefetch per Region: 25.1998
[Bingo] Number of Voters Mean: 4.89611
[Bingo] Number of Voters SD: 4.15076
PHT read accesses: 1148327
PHT write accesses: 57530
AT read accesses: 414703
AT write accesses: 459237
FT read accesses: 189593
FT write accesses: 123309
PS read accesses: 203531
PS write accesses: 96955
PHT tag read accesses: 2819678
PHT tag write accesses: 98879
AT tag read accesses: 20080892
AT tag write accesses: 472231
FT tag read accesses: 16288136
FT tag write accesses: 250113
PS tag read accesses: 12258237
PS tag write accesses: 298971

DRAM Statistics
 CHANNEL 0
 RQ ROW_BUFFER_HIT:     157221  ROW_BUFFER_MISS:     263474
 DBUS_CONGESTED:        136
 WQ ROW_BUFFER_HIT:      22223  ROW_BUFFER_MISS:     137710  FULL:          0

 AVG_CONGESTED_CYCLE: 4
 All warmup complete: 2
Channel 0 Bank busy for read cycles: 0
Channel 0 Bank busy for write cycles: 0
Channel 0
Rank 0
0banks busy for read cycles: 327636550
0banks busy for write cycles: 42229
1banks busy for read cycles: 11834575
1banks busy for write cycles: 5437691
2banks busy for read cycles: 2786985
2banks busy for write cycles: 2036753
3banks busy for read cycles: 1298557
3banks busy for write cycles: 1191631
4banks busy for read cycles: 873378
4banks busy for write cycles: 888967
5banks busy for read cycles: 678543
5banks busy for write cycles: 751376
6banks busy for read cycles: 637159
6banks busy for write cycles: 620775
7banks busy for read cycles: 697567
7banks busy for write cycles: 471791
8banks busy for read cycles: 1311594
8banks busy for write cycles: 275973

CPU 0 Branch Prediction Accuracy: 99.0693% MPKI: 1.53431 Average ROB Occupancy at Mispredict: 49.8709
Branch types
NOT_BRANCH: 167028092 83.514%
BRANCH_DIRECT_JUMP: 4141047 2.07052%
BRANCH_INDIRECT: 1274734 0.637367%
BRANCH_CONDITIONAL: 23669876 11.8349%
BRANCH_DIRECT_CALL: 1551808 0.775904%
BRANCH_INDIRECT_CALL: 391135 0.195567%
BRANCH_RETURN: 1942942 0.971471%
BRANCH_OTHER: 0 0%

DRAM PAGES: 1048576
Allocated PAGES: 5924
