
*** ChampSim Multicore Out-of-Order Simulator ***

Warmup Instructions: 50000000
Simulation Instructions: 200000000
Number of CPUs: 1
LLC sets: 2048
LLC ways: 16
L0D sets: 16
L0D ways: 2
ROB size: 352
LQ size: 128
SQ size: 72
Secure Berti: OFF
Berti: OFF
Berti Fill: OFF
On commit prefetching: OFF
Hit-based filter: OFF
Time-guarding: ON
Free-slotting: ON
Leap-frogging: ON
Train prefetcher on L0D bypass: OFF
No translation penalty for prefetchers: OFF
Prefetch to L0D only: OFF
Prefetch to L1D only: OFF
Clean evictions: ON
Commit loads: ON
Commit write: ON
Fill commit loads to L2C, LLC: ON
DRAM IO FREQUENCY: 6400
ROB SIZE: 352
Off-chip DRAM Size: 4096 MB Channels: 1 Width: 64-bit Data Rate: 6400 MT/s
CPU 0 runs /home/sumon/secure_berti/GhostMinion/../../traces/spec/605.mcf_s-665B.champsimtrace.xz
.xz
BTB has LRU replacement policy
ITLB has LRU replacement policy
DTLB has LRU replacement policy
STLB has LRU replacement policy
L1I has LRU replacement policy
L0D has LRU replacement policy
L1D has LRU replacement policy
Bingo PHT WAYS: 16 and PHT_SIZE: 16384
L2C has LRU replacement policy
LLC has LRU replacement policy
Heartbeat CPU 0 instructions: 10000000 cycles: 5662837 heartbeat IPC: 1.7659 cumulative IPC: 1.7659 (Simulation time: 0 hr 1 min 49 sec) 
Heartbeat CPU 0 instructions: 20000000 cycles: 11314821 heartbeat IPC: 1.76929 cumulative IPC: 1.76759 (Simulation time: 0 hr 3 min 52 sec) 
Heartbeat CPU 0 instructions: 30000002 cycles: 16974324 heartbeat IPC: 1.76694 cumulative IPC: 1.76738 (Simulation time: 0 hr 6 min 2 sec) 
Heartbeat CPU 0 instructions: 40000000 cycles: 22610327 heartbeat IPC: 1.77431 cumulative IPC: 1.7691 (Simulation time: 0 hr 8 min 14 sec) 
Heartbeat CPU 0 instructions: 50000000 cycles: 28273026 heartbeat IPC: 1.76594 cumulative IPC: 1.76847 (Simulation time: 0 hr 10 min 25 sec) 

Warmup complete CPU 0 instructions: 50000004 cycles: 28273027 (Simulation time: 0 hr 10 min 25 sec) 

Heartbeat CPU 0 instructions: 60000003 cycles: 61947190 heartbeat IPC: 0.296964 cumulative IPC: 0.296964 (Simulation time: 0 hr 13 min 0 sec) 
Heartbeat CPU 0 instructions: 70000003 cycles: 95577486 heartbeat IPC: 0.297351 cumulative IPC: 0.297157 (Simulation time: 0 hr 15 min 34 sec) 
Heartbeat CPU 0 instructions: 80000001 cycles: 129240354 heartbeat IPC: 0.297063 cumulative IPC: 0.297126 (Simulation time: 0 hr 18 min 11 sec) 
Heartbeat CPU 0 instructions: 90000001 cycles: 163553680 heartbeat IPC: 0.291432 cumulative IPC: 0.295682 (Simulation time: 0 hr 20 min 46 sec) 
Heartbeat CPU 0 instructions: 100000000 cycles: 196667075 heartbeat IPC: 0.301993 cumulative IPC: 0.296923 (Simulation time: 0 hr 23 min 9 sec) 
Heartbeat CPU 0 instructions: 110000000 cycles: 229786613 heartbeat IPC: 0.301937 cumulative IPC: 0.297747 (Simulation time: 0 hr 25 min 31 sec) 
Heartbeat CPU 0 instructions: 120000000 cycles: 262742704 heartbeat IPC: 0.303434 cumulative IPC: 0.298546 (Simulation time: 0 hr 27 min 52 sec) 
Heartbeat CPU 0 instructions: 130000000 cycles: 295628473 heartbeat IPC: 0.304083 cumulative IPC: 0.299227 (Simulation time: 0 hr 30 min 7 sec) 
Heartbeat CPU 0 instructions: 140000002 cycles: 329164031 heartbeat IPC: 0.298191 cumulative IPC: 0.299112 (Simulation time: 0 hr 32 min 19 sec) 
Heartbeat CPU 0 instructions: 150000000 cycles: 362477637 heartbeat IPC: 0.300178 cumulative IPC: 0.299218 (Simulation time: 0 hr 34 min 25 sec) 
Heartbeat CPU 0 instructions: 160000001 cycles: 395594407 heartbeat IPC: 0.301962 cumulative IPC: 0.299465 (Simulation time: 0 hr 36 min 24 sec) 
Heartbeat CPU 0 instructions: 170000003 cycles: 429202732 heartbeat IPC: 0.297545 cumulative IPC: 0.299304 (Simulation time: 0 hr 38 min 27 sec) 
Heartbeat CPU 0 instructions: 180000001 cycles: 462295495 heartbeat IPC: 0.302181 cumulative IPC: 0.299524 (Simulation time: 0 hr 40 min 40 sec) 
Heartbeat CPU 0 instructions: 190000002 cycles: 495482923 heartbeat IPC: 0.301319 cumulative IPC: 0.299651 (Simulation time: 0 hr 42 min 54 sec) 
Heartbeat CPU 0 instructions: 200000000 cycles: 528855670 heartbeat IPC: 0.299646 cumulative IPC: 0.299651 (Simulation time: 0 hr 45 min 8 sec) 
Heartbeat CPU 0 instructions: 210000000 cycles: 562099147 heartbeat IPC: 0.300811 cumulative IPC: 0.299723 (Simulation time: 0 hr 47 min 19 sec) 
Heartbeat CPU 0 instructions: 220000000 cycles: 594956691 heartbeat IPC: 0.304344 cumulative IPC: 0.299991 (Simulation time: 0 hr 49 min 27 sec) 
Heartbeat CPU 0 instructions: 230000000 cycles: 628707620 heartbeat IPC: 0.296288 cumulative IPC: 0.299783 (Simulation time: 0 hr 51 min 33 sec) 
Heartbeat CPU 0 instructions: 240000000 cycles: 661474959 heartbeat IPC: 0.305182 cumulative IPC: 0.300062 (Simulation time: 0 hr 53 min 30 sec) 
Heartbeat CPU 0 instructions: 250000002 cycles: 694477840 heartbeat IPC: 0.303004 cumulative IPC: 0.300208 (Simulation time: 0 hr 55 min 28 sec) 
Finished CPU 0 instructions: 200000002 cycles: 666204814 cumulative IPC: 0.300208 (Simulation time: 0 hr 55 min 28 sec) 
 Instruction ID: 250000015

ChampSim completed all CPUs

Region of Interest Statistics

CPU 0 cumulative IPC: 0.300208 instructions: 200000002 cycles: 666204814
ITLB SPEC fills:          0  NON-SPEC fills:          0
ITLB Test counter :          0
ITLB Leapfrog:          0
ITLB MSHR merge:          0
ITLB TOTAL     ACCESS:   36303758  HIT:   36303758  MISS:          0  HIT %:        100  MISS %:          0   MPKI: 0
ITLB LOAD TRANSLATION NON_SPEC    ACCESS:   36303758  HIT:   36303758  MISS:          0  HIT %:        100  MISS %:          0   MPKI: 0
ITLB PREFETCH  REQUESTED:          0  ISSUED:          0  USEFUL:          0  USELESS:          0
ITLB USEFUL LOAD PREFETCHES:          0 PREFETCH ISSUED TO LOWER LEVEL:          0  ACCURACY: -nan
ITLB TIMELY PREFETCHES:          0 LATE PREFETCHES: 0 DROPPED PREFETCHES: 0
ITLB COMMIT LATE PREFETCHES: 0 NORMAL LATE: 0 MISSED OPPORTUNITY: 0 UNCOVERED: 0
ITLB PREFETCHES SAME FILL-ORIGIN LEVEL: 0 DIFFERENT FILL-ORIGIN LEVEL: 0
ITLB AVERAGE MISS LATENCY: -nan cycles
ITLB AVERAGE MISS LATENCY LOAD: -nan cycles
ITLB AVERAGE MISS LATENCY PREFETCH: -nan cycles
ITLB AVERAGE MSHR OCCUPANCY: 0
ITLB MSHR FULL: 0
ITLB RQ	ACCESS:   38008807	FORWARD:          0	MERGED:    1705050	TO_CACHE:   36303757

DTLB SPEC fills:          0  NON-SPEC fills:          0
DTLB Test counter :          0
DTLB Leapfrog:          0
DTLB MSHR merge:          0
DTLB TOTAL     ACCESS:   67948720  HIT:   64953024  MISS:    2995696  HIT %:    95.5912  MISS %:    4.40876   MPKI: 14.9785
DTLB LOAD TRANSLATION NON_SPEC    ACCESS:   67948720  HIT:   64953024  MISS:    2995696  HIT %:    95.5912  MISS %:    4.40876   MPKI: 14.9785
DTLB PREFETCH  REQUESTED:          0  ISSUED:          0  USEFUL:          0  USELESS:          0
DTLB USEFUL LOAD PREFETCHES:          0 PREFETCH ISSUED TO LOWER LEVEL:          0  ACCURACY: -nan
DTLB TIMELY PREFETCHES:          0 LATE PREFETCHES: 0 DROPPED PREFETCHES: 0
DTLB COMMIT LATE PREFETCHES: 0 NORMAL LATE: 0 MISSED OPPORTUNITY: 0 UNCOVERED: 0
DTLB PREFETCHES SAME FILL-ORIGIN LEVEL: 0 DIFFERENT FILL-ORIGIN LEVEL: 0
DTLB AVERAGE MISS LATENCY: 11.3611 cycles
DTLB AVERAGE MISS LATENCY LOAD: -nan cycles
DTLB AVERAGE MISS LATENCY PREFETCH: -nan cycles
DTLB AVERAGE MSHR OCCUPANCY: 0.0321339
DTLB MSHR FULL: 0
DTLB RQ	ACCESS:   82033935	FORWARD:          0	MERGED:   13701162	TO_CACHE:   68332773

STLB SPEC fills:          0  NON-SPEC fills:          0
STLB Test counter :          0
STLB Leapfrog:          0
STLB MSHR merge:          0
STLB TOTAL     ACCESS:    2995696  HIT:    2953662  MISS:      42034  HIT %:    98.5969  MISS %:    1.40315   MPKI: 0.21017
STLB LOAD TRANSLATION NON_SPEC    ACCESS:    2995696  HIT:    2953662  MISS:      42034  HIT %:    98.5969  MISS %:    1.40315   MPKI: 0.21017
STLB PREFETCH  REQUESTED:          0  ISSUED:          0  USEFUL:          0  USELESS:          0
STLB USEFUL LOAD PREFETCHES:          0 PREFETCH ISSUED TO LOWER LEVEL:          0  ACCURACY: -nan
STLB TIMELY PREFETCHES:          0 LATE PREFETCHES: 0 DROPPED PREFETCHES: 0
STLB COMMIT LATE PREFETCHES: 0 NORMAL LATE: 0 MISSED OPPORTUNITY: 0 UNCOVERED: 0
STLB PREFETCHES SAME FILL-ORIGIN LEVEL: 0 DIFFERENT FILL-ORIGIN LEVEL: 0
STLB AVERAGE MISS LATENCY: 165.806 cycles
STLB AVERAGE MISS LATENCY LOAD: -nan cycles
STLB AVERAGE MISS LATENCY PREFETCH: -nan cycles
STLB AVERAGE MSHR OCCUPANCY: 0.0194289
STLB MSHR FULL: 0
STLB RQ	ACCESS:    2995696	FORWARD:          0	MERGED:          0	TO_CACHE:    2995696

STLB Hit, L1D data hit: 0
STLB Hit, L2C data hit: 0
STLB Hit, LLC data hit: 0
STLB Hit, LLC data miss: 0
STLB STLB hints to L2: 0
L0D SPEC fills:   35158609  NON-SPEC fills:          0
L0D TimeGuard Request with older TS:     161640 Restricted eviction:      69659 read:     227832
L0D Test counter :          0
L0D Leapfrog:          0
L0D MSHR merge:    1032233
L0D TOTAL     ACCESS:   57327324  HIT:    3888026  MISS:   53439298  HIT %:    6.78215  MISS %:    93.2178   MPKI: 267.196
L0D LOAD      TOTAL       ACCESS:   57327324  HIT:    3888026  MISS:   53439298  HIT %:    6.78215  MISS %:    93.2178   MPKI: 267.196
L0D LOAD      NON_SPEC    ACCESS:   18718563  HIT:     507533  MISS:   18211030  HIT %:    2.71139  MISS %:    97.2886   MPKI: 91.0551
L0D LOAD      SPEC        ACCESS:   38608761  HIT:    3380493  MISS:   35228268  HIT %:    8.75577  MISS %:    91.2442   MPKI: 176.141
L0D PREFETCH  REQUESTED:          0  ISSUED:          0  USEFUL:          0  USELESS:          0
L0D USEFUL LOAD PREFETCHES:          0 PREFETCH ISSUED TO LOWER LEVEL:          0  ACCURACY: -nan
L0D TIMELY PREFETCHES:          0 LATE PREFETCHES: 0 DROPPED PREFETCHES: 0
L0D COMMIT LATE PREFETCHES: 0 NORMAL LATE: 0 MISSED OPPORTUNITY: 0 UNCOVERED: 53439298
L0D PREFETCHES SAME FILL-ORIGIN LEVEL: 0 DIFFERENT FILL-ORIGIN LEVEL: 0
L0D AVERAGE MISS LATENCY: 10.5434 cycles
L0D AVERAGE MISS LATENCY LOAD: 10.5434 cycles
L0D AVERAGE MISS LATENCY PREFETCH: -nan cycles
L0D AVERAGE MSHR OCCUPANCY: 0.639149
L0D MSHR FULL: 0.00304647
L0D RQ	ACCESS:   67403586	FORWARD:          0	MERGED:    9044032	TO_CACHE:   58359554
L0D WQ	ACCESS:   23674381	FORWARD:          0	MERGED:          0	TO_CACHE:   23674381

L1D SPEC fills:          0  NON-SPEC fills:    2761526
L1D Test counter :          0
L1D Leapfrog:          0
L1D MSHR merge:       2694
L1D TOTAL     ACCESS:  119039241  HIT:  108569007  MISS:   10470234  HIT %:    91.2044  MISS %:    8.79562   MPKI: 52.3512
L1D LOAD      TOTAL       ACCESS:   53436605  HIT:   47207833  MISS:    6228772  HIT %:    88.3436  MISS %:    11.6564   MPKI: 31.1439
L1D LOAD      NON_SPEC    ACCESS:   18210284  HIT:   15448758  MISS:    2761526  HIT %:    84.8353  MISS %:    15.1647   MPKI: 13.8076
L1D LOAD      SPEC        ACCESS:   35226321  HIT:   31759075  MISS:    3467246  HIT %:    90.1572  MISS %:    9.84277   MPKI: 17.3362
L1D RFO       NON_SPEC    ACCESS:   20386394  HIT:   19632384  MISS:     754010  HIT %:    96.3014  MISS %:    3.69859   MPKI: 3.77005
L1D COMMIT LOAD NON_SPEC    ACCESS:   10139587  HIT:   10045588  MISS:      93999  HIT %:     99.073  MISS %:    0.92705   MPKI: 0.469995
L1D COMMIT WRITE NON_SPEC    ACCESS:   35076655  HIT:   31683202  MISS:    3393453  HIT %:    90.3256  MISS %:    9.67439   MPKI: 16.9673
L1D PREFETCH  REQUESTED:          0  ISSUED:          0  USEFUL:          0  USELESS:          0
L1D USEFUL LOAD PREFETCHES:          0 PREFETCH ISSUED TO LOWER LEVEL:          0  ACCURACY: -nan
L1D TIMELY PREFETCHES:          0 LATE PREFETCHES: 0 DROPPED PREFETCHES: 0
L1D COMMIT LATE PREFETCHES: 0 NORMAL LATE: 0 MISSED OPPORTUNITY: 0 UNCOVERED: 6228772
L1D PREFETCHES SAME FILL-ORIGIN LEVEL: 0 DIFFERENT FILL-ORIGIN LEVEL: 0
L1D AVERAGE MISS LATENCY: 30.4628 cycles
L1D AVERAGE MISS LATENCY LOAD: 46.5507 cycles
L1D AVERAGE MISS LATENCY PREFETCH: -nan cycles
L1D AVERAGE MSHR OCCUPANCY: 0.201192
L1D MSHR FULL: 0
L1D RQ	ACCESS:   66935392	FORWARD:          0	MERGED:    2566806	TO_CACHE:   63581911
L1D WQ	ACCESS:   58754396	FORWARD:     786675	MERGED:    2017393	TO_CACHE:   56737003

L1D UNIQUE REGIONS ACCESSED: 0
L1D REGIONS CONFLICTS: 0
L1D Cross Page Prefetch Requests: 0
L1D Same Page Prefetch Requests: 0
L1D ROI Sum of L1D PQ occupancy: 0
L1D PREFETCHES PUSHED FROM L2C: 0
L1I SPEC fills:          0  NON-SPEC fills:          0
L1I Test counter :          0
L1I Leapfrog:          0
L1I MSHR merge:          0
L1I TOTAL     ACCESS:   38008808  HIT:   38008806  MISS:          2  HIT %:        100  MISS %: 5.26194e-06   MPKI: 1e-05
L1I LOAD      TOTAL       ACCESS:   38008808  HIT:   38008806  MISS:          2  HIT %:        100  MISS %: 5.26194e-06   MPKI: 1e-05
L1I LOAD      NON_SPEC    ACCESS:   38008808  HIT:   38008806  MISS:          2  HIT %:        100  MISS %: 5.26194e-06   MPKI: 1e-05
L1I PREFETCH  REQUESTED:          0  ISSUED:          0  USEFUL:          0  USELESS:          0
L1I USEFUL LOAD PREFETCHES:          0 PREFETCH ISSUED TO LOWER LEVEL:          0  ACCURACY: -nan
L1I TIMELY PREFETCHES:          0 LATE PREFETCHES: 0 DROPPED PREFETCHES: 0
L1I COMMIT LATE PREFETCHES: 0 NORMAL LATE: 0 MISSED OPPORTUNITY: 0 UNCOVERED: 2
L1I PREFETCHES SAME FILL-ORIGIN LEVEL: 0 DIFFERENT FILL-ORIGIN LEVEL: 0
L1I AVERAGE MISS LATENCY: 214 cycles
L1I AVERAGE MISS LATENCY LOAD: 214 cycles
L1I AVERAGE MISS LATENCY PREFETCH: -nan cycles
L1I AVERAGE MSHR OCCUPANCY: 2.63097e-08
L1I MSHR FULL: 0
L1I RQ	ACCESS:   61774673	FORWARD:          0	MERGED:   23765866	TO_CACHE:   38008807

BTB SPEC fills:          0  NON-SPEC fills:          0
BTB Test counter :          0
BTB Leapfrog:          0
BTB MSHR merge:          0
BTB TOTAL     ACCESS:   47317450  HIT:   44887024  MISS:    2430426  HIT %:    94.8636  MISS %:    5.13643   MPKI: 12.1521
BTB BRANCH_DIRECT_JUMP	ACCESS:    5163667  HIT:    5163630  MISS:         37
BTB BRANCH_INDIRECT	ACCESS:          0  HIT:          0  MISS:          0
BTB BRANCH_CONDITIONAL	ACCESS:   31033862  HIT:   31033783  MISS:         79
BTB BRANCH_DIRECT_CALL	ACCESS:    5259751  HIT:    5259733  MISS:         18
BTB BRANCH_INDIRECT_CALL	ACCESS:     300210  HIT:     300202  MISS:          8
BTB BRANCH_RETURN	ACCESS:    5559960  HIT:    3129676  MISS:    2430284
BTB BRANCH_OTHER ACCESS:          0  HIT:          0  MISS:          0

L2C SPEC fills:          0  NON-SPEC fills:    1128789
L2C Test counter :          0
L2C Leapfrog:          0
L2C MSHR merge:      50745
L2C TOTAL     ACCESS:   17518996  HIT:    9168736  MISS:    8350260  HIT %:     52.336  MISS %:     47.664   MPKI: 41.7513
L2C LOAD      TOTAL       ACCESS:    6228630  HIT:    3704955  MISS:    2523675  HIT %:    59.4827  MISS %:    40.5173   MPKI: 12.6184
L2C LOAD      NON_SPEC    ACCESS:    2761491  HIT:    1632700  MISS:    1128791  HIT %:    59.1239  MISS %:    40.8761   MPKI: 5.64395
L2C LOAD      SPEC        ACCESS:    3467139  HIT:    2072255  MISS:    1394884  HIT %:    59.7684  MISS %:    40.2316   MPKI: 6.97442
L2C RFO       NON_SPEC    ACCESS:     753973  HIT:     327701  MISS:     426272  HIT %:    43.4632  MISS %:    56.5368   MPKI: 2.13136
L2C PREFETCH  NON_SPEC    ACCESS:    5319938  HIT:    1343772  MISS:    3976166  HIT %:    25.2592  MISS %:    74.7408   MPKI: 19.8808
L2C WRITEBACK NON_SPEC    ACCESS:     799970  HIT:     799883  MISS:         87  HIT %:    99.9891  MISS %:  0.0108754   MPKI: 0.000435
L2C CLEAN_EVICTION NON_SPEC    ACCESS:    4112565  HIT:    2753657  MISS:    1358908  HIT %:    66.9572  MISS %:    33.0428   MPKI: 6.79454
L2C COMMIT LOAD NON_SPEC    ACCESS:      93952  HIT:      49704  MISS:      44248  HIT %:    52.9036  MISS %:    47.0964   MPKI: 0.22124
L2C LOAD TRANSLATION NON_SPEC    ACCESS:     209968  HIT:     189064  MISS:      20904  HIT %:    90.0442  MISS %:     9.9558   MPKI: 0.10452
L2C PREFETCH  REQUESTED:    5475190  ISSUED:    5475190  USEFUL:    1836909  USELESS:    2139476
L2C USEFUL LOAD PREFETCHES:    1836909 PREFETCH ISSUED TO LOWER LEVEL:    4026936  ACCURACY: 45.6155
L2C TIMELY PREFETCHES:    1836909 LATE PREFETCHES: 50770 DROPPED PREFETCHES: 0
L2C COMMIT LATE PREFETCHES: 0 NORMAL LATE: 50770 MISSED OPPORTUNITY: 0 UNCOVERED: 2472905
L2C PREFETCHES SAME FILL-ORIGIN LEVEL: 4026936 DIFFERENT FILL-ORIGIN LEVEL: 0
L2C AVERAGE MISS LATENCY: 90.3775 cycles
L2C AVERAGE MISS LATENCY LOAD: 83.3694 cycles
L2C AVERAGE MISS LATENCY PREFETCH: 132.274 cycles
L2C AVERAGE MSHR OCCUPANCY: 2.34208
L2C MSHR FULL: 0.00209441
L2C RQ	ACCESS:    7286751	FORWARD:          0	MERGED:          0	TO_CACHE:    7286523
L2C WQ	ACCESS:    4912544	FORWARD:        242	MERGED:          9	TO_CACHE:    4912535
L2C PQ	ACCESS:    5475190	FORWARD:          0	MERGED:          1	TO_CACHE:    5475175

L2C Instructions Evicting Data 2
L2C Translations Evicting Data 20843
L2C Data Evicting Data 5558822
L2C Instructions Evicting Instructions 0
L2C Translations Evicting Instructions 0
L2C Data Evicting Instructions 2
L2C Instructions Evicting Translations 0
L2C Translations Evicting Translations 61
L2C Data Evicting Translations 16651
L2C Dense regions hint from L2: 0
PSCL5 SPEC fills:          0  NON-SPEC fills:          0
PSCL5 Test counter :          0
PSCL5 Leapfrog:          0
PSCL5 MSHR merge:          0
PSCL5 TOTAL     ACCESS:          0  HIT:          0  MISS:          0  HIT %:       -nan  MISS %:       -nan   MPKI: 0
PSCL5 PREFETCH  REQUESTED:          0  ISSUED:          0  USEFUL:          0  USELESS:          0
PSCL5 USEFUL LOAD PREFETCHES:          0 PREFETCH ISSUED TO LOWER LEVEL:          0  ACCURACY: -nan
PSCL5 TIMELY PREFETCHES:          0 LATE PREFETCHES: 0 DROPPED PREFETCHES: 0
PSCL5 COMMIT LATE PREFETCHES: 0 NORMAL LATE: 0 MISSED OPPORTUNITY: 0 UNCOVERED: 0
PSCL5 PREFETCHES SAME FILL-ORIGIN LEVEL: 0 DIFFERENT FILL-ORIGIN LEVEL: 0

PSCL4 SPEC fills:          0  NON-SPEC fills:          0
PSCL4 Test counter :          0
PSCL4 Leapfrog:          0
PSCL4 MSHR merge:          0
PSCL4 TOTAL     ACCESS:          0  HIT:          0  MISS:          0  HIT %:       -nan  MISS %:       -nan   MPKI: 0
PSCL4 PREFETCH  REQUESTED:          0  ISSUED:          0  USEFUL:          0  USELESS:          0
PSCL4 USEFUL LOAD PREFETCHES:          0 PREFETCH ISSUED TO LOWER LEVEL:          0  ACCURACY: -nan
PSCL4 TIMELY PREFETCHES:          0 LATE PREFETCHES: 0 DROPPED PREFETCHES: 0
PSCL4 COMMIT LATE PREFETCHES: 0 NORMAL LATE: 0 MISSED OPPORTUNITY: 0 UNCOVERED: 0
PSCL4 PREFETCHES SAME FILL-ORIGIN LEVEL: 0 DIFFERENT FILL-ORIGIN LEVEL: 0

PSCL3 SPEC fills:          0  NON-SPEC fills:          0
PSCL3 Test counter :          0
PSCL3 Leapfrog:          0
PSCL3 MSHR merge:          0
PSCL3 TOTAL     ACCESS:          0  HIT:          0  MISS:          0  HIT %:       -nan  MISS %:       -nan   MPKI: 0
PSCL3 PREFETCH  REQUESTED:          0  ISSUED:          0  USEFUL:          0  USELESS:          0
PSCL3 USEFUL LOAD PREFETCHES:          0 PREFETCH ISSUED TO LOWER LEVEL:          0  ACCURACY: -nan
PSCL3 TIMELY PREFETCHES:          0 LATE PREFETCHES: 0 DROPPED PREFETCHES: 0
PSCL3 COMMIT LATE PREFETCHES: 0 NORMAL LATE: 0 MISSED OPPORTUNITY: 0 UNCOVERED: 0
PSCL3 PREFETCHES SAME FILL-ORIGIN LEVEL: 0 DIFFERENT FILL-ORIGIN LEVEL: 0

PSCL2 SPEC fills:          0  NON-SPEC fills:          0
PSCL2 Test counter :          0
PSCL2 Leapfrog:          0
PSCL2 MSHR merge:          0
PSCL2 TOTAL     ACCESS:          0  HIT:          0  MISS:          0  HIT %:       -nan  MISS %:       -nan   MPKI: 0
PSCL2 PREFETCH  REQUESTED:          0  ISSUED:          0  USEFUL:          0  USELESS:          0
PSCL2 USEFUL LOAD PREFETCHES:          0 PREFETCH ISSUED TO LOWER LEVEL:          0  ACCURACY: -nan
PSCL2 TIMELY PREFETCHES:          0 LATE PREFETCHES: 0 DROPPED PREFETCHES: 0
PSCL2 COMMIT LATE PREFETCHES: 0 NORMAL LATE: 0 MISSED OPPORTUNITY: 0 UNCOVERED: 0
PSCL2 PREFETCHES SAME FILL-ORIGIN LEVEL: 0 DIFFERENT FILL-ORIGIN LEVEL: 0

LLC SPEC fills:          0  NON-SPEC fills:     270690
LLC Test counter :          0
LLC Leapfrog:          0
LLC MSHR merge:          0
LLC TOTAL     ACCESS:   10592917  HIT:    7341220  MISS:    3251697  HIT %:    69.3031  MISS %:    30.6969   MPKI: 16.2585
LLC LOAD      TOTAL       ACCESS:    2472914  HIT:    1727214  MISS:     745700  HIT %:    69.8453  MISS %:    30.1547   MPKI: 3.7285
LLC LOAD      NON_SPEC    ACCESS:    1127992  HIT:     857300  MISS:     270692  HIT %:    76.0023  MISS %:    23.9977   MPKI: 1.35346
LLC LOAD      SPEC        ACCESS:    1344922  HIT:     869914  MISS:     475008  HIT %:    64.6814  MISS %:    35.3186   MPKI: 2.37504
LLC RFO       NON_SPEC    ACCESS:     426225  HIT:     421129  MISS:       5096  HIT %:    98.8044  MISS %:    1.19561   MPKI: 0.02548
LLC PREFETCH  NON_SPEC    ACCESS:    4026886  HIT:    2070685  MISS:    1956201  HIT %:    51.4215  MISS %:    48.5785   MPKI: 9.781
LLC WRITEBACK NON_SPEC    ACCESS:     441779  HIT:     439038  MISS:       2741  HIT %:    99.3796  MISS %:   0.620446   MPKI: 0.013705
LLC CLEAN_EVICTION NON_SPEC    ACCESS:    3159965  HIT:    2631695  MISS:     528270  HIT %:    83.2824  MISS %:    16.7176   MPKI: 2.64135
LLC COMMIT LOAD NON_SPEC    ACCESS:      44244  HIT:      38256  MISS:       5988  HIT %:     86.466  MISS %:     13.534   MPKI: 0.02994
LLC LOAD TRANSLATION NON_SPEC    ACCESS:      20904  HIT:      13203  MISS:       7701  HIT %:    63.1602  MISS %:    36.8398   MPKI: 0.038505
LLC PREFETCH  REQUESTED:          0  ISSUED:          0  USEFUL:     303959  USELESS:    1653702
LLC USEFUL LOAD PREFETCHES:     303959 PREFETCH ISSUED TO LOWER LEVEL:    1956201  ACCURACY: 15.5382
LLC TIMELY PREFETCHES:     303959 LATE PREFETCHES: 0 DROPPED PREFETCHES: 0
LLC COMMIT LATE PREFETCHES: 0 NORMAL LATE: 0 MISSED OPPORTUNITY: 0 UNCOVERED: 745700
LLC PREFETCHES SAME FILL-ORIGIN LEVEL: 0 DIFFERENT FILL-ORIGIN LEVEL: 0
LLC AVERAGE MISS LATENCY: 171.816 cycles
LLC AVERAGE MISS LATENCY LOAD: 187.566 cycles
LLC AVERAGE MISS LATENCY PREFETCH: 212.311 cycles
LLC AVERAGE MSHR OCCUPANCY: 2.27943
LLC MSHR FULL: 0
LLC RQ	ACCESS:    2964329	FORWARD:          0	MERGED:          0	TO_CACHE:    2964287
LLC WQ	ACCESS:    3601744	FORWARD:         92	MERGED:          0	TO_CACHE:    3601744
LLC PQ	ACCESS:    4026936	FORWARD:          0	MERGED:          0	TO_CACHE:    4026886

LLC Dense regions hint to LLC: 0

RAW hits: 2882019
Loads Generated: 70285606
Loads sent to L1D: 67403586
Stores Generated: 23674352
Stores sent to L1D: 23674381
Major fault: 0 Minor fault: 30918
Allocated PAGES: 30918
Total Load insts: 83343858
Total Non-spec loads: 20538007
Percentage of speculative loads: 75.3575

LeapFrogging counter: 67501
Commit hits: 35080015 miss: 13496095
Commit hit %: 72.2166 miss %: 27.7834
Commits not translated: 0
Loads retired: 6228772
Stores retired: 23674381
Cache fills: 6228772
L1D response latency: 46.5507 cycles
Load retirement latency: 119.93 cycles
OOO test counter: 0
Discarded buffer inserts: 35080015 hits: 31896 hit %: 0.0909236
Filter prediction accuracy: -nan
[Bingo] PHT Access: 2444001
[Bingo] PHT Hit PC+Addr: 340778
[Bingo] PHT Hit PC+Offs: 2094640
[Bingo] PHT Miss: 8583
[Bingo] Prefetch PC+Addr: 0
[Bingo] Prefetch PC+Offs: 0
[Bingo] Useful PC+Addr: 0
[Bingo] Useful PC+Offs: 0
[Bingo] Useless PC+Addr: 0
[Bingo] Useless PC+Offs: 0
[Bingo] L1 Prefetch per Region: 0
[Bingo] L2 Prefetch per Region: 3.29087
[Bingo] L3 Prefetch per Region: 0
[Bingo] No Prefetch per Region: 28.7091
[Bingo] Number of Voters Mean: 15.7432
[Bingo] Number of Voters SD: 8.74413
PHT read accesses: 36330773
PHT write accesses: 415938
AT read accesses: 3954816
AT write accesses: 4198449
FT read accesses: 1359246
FT write accesses: 2444001
PS read accesses: 5036290
PS write accesses: 2435418
PHT tag read accesses: 46981360
PHT tag write accesses: 756716
AT tag read accesses: 229544476
AT tag write accesses: 4370756
FT tag read accesses: 237741934
FT tag write accesses: 3385189
PS tag read accesses: 184429159
PS tag write accesses: 7451172

DRAM Statistics
 CHANNEL 0
 RQ ROW_BUFFER_HIT:     928850  ROW_BUFFER_MISS:    1791185
 DBUS_CONGESTED:        415
 WQ ROW_BUFFER_HIT:     410136  ROW_BUFFER_MISS:    1468590  FULL:        356

 AVG_CONGESTED_CYCLE: 4
 All warmup complete: 2
Channel 0 Bank busy for read cycles: 0
Channel 0 Bank busy for write cycles: 0
Channel 0
Rank 0
0banks busy for read cycles: 462160319
0banks busy for write cycles: 128519
1banks busy for read cycles: 55493261
1banks busy for write cycles: 17760704
2banks busy for read cycles: 27345090
2banks busy for write cycles: 10385493
3banks busy for read cycles: 12670940
3banks busy for write cycles: 8030886
4banks busy for read cycles: 5959652
4banks busy for write cycles: 6732310
5banks busy for read cycles: 2876660
5banks busy for write cycles: 6133557
6banks busy for read cycles: 1785774
6banks busy for write cycles: 6491870
7banks busy for read cycles: 2670403
7banks busy for write cycles: 9001979
8banks busy for read cycles: 12572690
8banks busy for write cycles: 18004708

CPU 0 Branch Prediction Accuracy: 92.9349% MPKI: 17.4788 Average ROB Occupancy at Mispredict: 18.3366
Branch types
NOT_BRANCH: 150520483 75.2602%
BRANCH_DIRECT_JUMP: 5163667 2.58183%
BRANCH_INDIRECT: 0 0%
BRANCH_CONDITIONAL: 33195560 16.5978%
BRANCH_DIRECT_CALL: 5259751 2.62988%
BRANCH_INDIRECT_CALL: 300210 0.150105%
BRANCH_RETURN: 5559960 2.77998%
BRANCH_OTHER: 0 0%

DRAM PAGES: 1048576
Allocated PAGES: 30918
