
*** ChampSim Multicore Out-of-Order Simulator ***

Warmup Instructions: 50000000
Simulation Instructions: 200000000
Number of CPUs: 1
LLC sets: 2048
LLC ways: 16
L0D sets: 16
L0D ways: 2
ROB size: 352
LQ size: 128
SQ size: 72
Secure Berti: OFF
Berti: OFF
Berti Fill: OFF
On commit prefetching: OFF
Hit-based filter: OFF
Time-guarding: ON
Free-slotting: ON
Leap-frogging: ON
Train prefetcher on L0D bypass: OFF
No translation penalty for prefetchers: OFF
Prefetch to L0D only: OFF
Prefetch to L1D only: OFF
Clean evictions: ON
Commit loads: ON
Commit write: ON
Fill commit loads to L2C, LLC: ON
DRAM IO FREQUENCY: 6400
ROB SIZE: 352
Off-chip DRAM Size: 4096 MB Channels: 1 Width: 64-bit Data Rate: 6400 MT/s
CPU 0 runs /home/sumon/secure_berti/GhostMinion/../../traces/spec/605.mcf_s-994B.champsimtrace.xz
.xz
BTB has LRU replacement policy
ITLB has LRU replacement policy
DTLB has LRU replacement policy
STLB has LRU replacement policy
L1I has LRU replacement policy
L0D has LRU replacement policy
L1D has LRU replacement policy
Bingo PHT WAYS: 16 and PHT_SIZE: 16384
L2C has LRU replacement policy
LLC has LRU replacement policy
Heartbeat CPU 0 instructions: 10000000 cycles: 6140737 heartbeat IPC: 1.62847 cumulative IPC: 1.62847 (Simulation time: 0 hr 1 min 44 sec) 
Heartbeat CPU 0 instructions: 20000000 cycles: 12459563 heartbeat IPC: 1.58257 cumulative IPC: 1.60519 (Simulation time: 0 hr 3 min 50 sec) 
Heartbeat CPU 0 instructions: 30000003 cycles: 18700970 heartbeat IPC: 1.6022 cumulative IPC: 1.60419 (Simulation time: 0 hr 6 min 8 sec) 
Heartbeat CPU 0 instructions: 40000002 cycles: 24898428 heartbeat IPC: 1.61356 cumulative IPC: 1.60653 (Simulation time: 0 hr 8 min 24 sec) 
Heartbeat CPU 0 instructions: 50000001 cycles: 31185581 heartbeat IPC: 1.59054 cumulative IPC: 1.60331 (Simulation time: 0 hr 11 min 21 sec) 

Warmup complete CPU 0 instructions: 50000001 cycles: 31185581 (Simulation time: 0 hr 11 min 21 sec) 

Heartbeat CPU 0 instructions: 60000000 cycles: 70348757 heartbeat IPC: 0.255342 cumulative IPC: 0.255342 (Simulation time: 0 hr 14 min 18 sec) 
Heartbeat CPU 0 instructions: 70000003 cycles: 116570792 heartbeat IPC: 0.216347 cumulative IPC: 0.234233 (Simulation time: 0 hr 17 min 34 sec) 
Heartbeat CPU 0 instructions: 80000002 cycles: 146811173 heartbeat IPC: 0.330684 cumulative IPC: 0.259458 (Simulation time: 0 hr 20 min 19 sec) 
Heartbeat CPU 0 instructions: 90000002 cycles: 178382898 heartbeat IPC: 0.316739 cumulative IPC: 0.271744 (Simulation time: 0 hr 22 min 45 sec) 
Heartbeat CPU 0 instructions: 100000002 cycles: 207272578 heartbeat IPC: 0.346144 cumulative IPC: 0.283951 (Simulation time: 0 hr 24 min 45 sec) 
Heartbeat CPU 0 instructions: 110000000 cycles: 258276331 heartbeat IPC: 0.196064 cumulative IPC: 0.264212 (Simulation time: 0 hr 27 min 29 sec) 
Heartbeat CPU 0 instructions: 120000000 cycles: 297499332 heartbeat IPC: 0.254952 cumulative IPC: 0.262848 (Simulation time: 0 hr 29 min 47 sec) 
Heartbeat CPU 0 instructions: 130000000 cycles: 332136500 heartbeat IPC: 0.288707 cumulative IPC: 0.265824 (Simulation time: 0 hr 32 min 6 sec) 
Heartbeat CPU 0 instructions: 140000000 cycles: 374857187 heartbeat IPC: 0.234079 cumulative IPC: 0.261878 (Simulation time: 0 hr 34 min 20 sec) 
Heartbeat CPU 0 instructions: 150000001 cycles: 436595068 heartbeat IPC: 0.161975 cumulative IPC: 0.246664 (Simulation time: 0 hr 37 min 9 sec) 
Heartbeat CPU 0 instructions: 160000000 cycles: 468029363 heartbeat IPC: 0.318124 cumulative IPC: 0.251806 (Simulation time: 0 hr 39 min 27 sec) 
Heartbeat CPU 0 instructions: 170000002 cycles: 494020498 heartbeat IPC: 0.384747 cumulative IPC: 0.259272 (Simulation time: 0 hr 41 min 20 sec) 
Heartbeat CPU 0 instructions: 180000001 cycles: 563051715 heartbeat IPC: 0.144862 cumulative IPC: 0.244422 (Simulation time: 0 hr 44 min 13 sec) 
Heartbeat CPU 0 instructions: 190000003 cycles: 589560746 heartbeat IPC: 0.37723 cumulative IPC: 0.250727 (Simulation time: 0 hr 46 min 6 sec) 
Heartbeat CPU 0 instructions: 200000001 cycles: 621995336 heartbeat IPC: 0.308313 cumulative IPC: 0.253889 (Simulation time: 0 hr 48 min 8 sec) 
Heartbeat CPU 0 instructions: 210000001 cycles: 668341061 heartbeat IPC: 0.21577 cumulative IPC: 0.251116 (Simulation time: 0 hr 50 min 42 sec) 
Heartbeat CPU 0 instructions: 220000000 cycles: 726532269 heartbeat IPC: 0.171847 cumulative IPC: 0.244482 (Simulation time: 0 hr 53 min 25 sec) 
Heartbeat CPU 0 instructions: 230000000 cycles: 759879837 heartbeat IPC: 0.299872 cumulative IPC: 0.247017 (Simulation time: 0 hr 55 min 34 sec) 
Heartbeat CPU 0 instructions: 240000002 cycles: 794086808 heartbeat IPC: 0.292338 cumulative IPC: 0.249049 (Simulation time: 0 hr 57 min 46 sec) 
Heartbeat CPU 0 instructions: 250000000 cycles: 820846934 heartbeat IPC: 0.37369 cumulative IPC: 0.253273 (Simulation time: 0 hr 59 min 38 sec) 
Finished CPU 0 instructions: 200000002 cycles: 789661361 cumulative IPC: 0.253273 (Simulation time: 0 hr 59 min 38 sec) 
 Instruction ID: 250000010

ChampSim completed all CPUs

Region of Interest Statistics

CPU 0 cumulative IPC: 0.253273 instructions: 200000002 cycles: 789661361
ITLB SPEC fills:          0  NON-SPEC fills:          0
ITLB Test counter :          0
ITLB Leapfrog:          0
ITLB MSHR merge:          0
ITLB TOTAL     ACCESS:   35382783  HIT:   35382783  MISS:          0  HIT %:        100  MISS %:          0   MPKI: 0
ITLB LOAD TRANSLATION NON_SPEC    ACCESS:   35382783  HIT:   35382783  MISS:          0  HIT %:        100  MISS %:          0   MPKI: 0
ITLB PREFETCH  REQUESTED:          0  ISSUED:          0  USEFUL:          0  USELESS:          0
ITLB USEFUL LOAD PREFETCHES:          0 PREFETCH ISSUED TO LOWER LEVEL:          0  ACCURACY: -nan
ITLB TIMELY PREFETCHES:          0 LATE PREFETCHES: 0 DROPPED PREFETCHES: 0
ITLB COMMIT LATE PREFETCHES: 0 NORMAL LATE: 0 MISSED OPPORTUNITY: 0 UNCOVERED: 0
ITLB PREFETCHES SAME FILL-ORIGIN LEVEL: 0 DIFFERENT FILL-ORIGIN LEVEL: 0
ITLB AVERAGE MISS LATENCY: -nan cycles
ITLB AVERAGE MISS LATENCY LOAD: -nan cycles
ITLB AVERAGE MISS LATENCY PREFETCH: -nan cycles
ITLB AVERAGE MSHR OCCUPANCY: 0
ITLB MSHR FULL: 0
ITLB RQ	ACCESS:   36249292	FORWARD:          0	MERGED:     866509	TO_CACHE:   35382783

DTLB SPEC fills:          0  NON-SPEC fills:          0
DTLB Test counter :          0
DTLB Leapfrog:          0
DTLB MSHR merge:          0
DTLB TOTAL     ACCESS:   72124048  HIT:   69201008  MISS:    2923040  HIT %:    95.9472  MISS %:     4.0528   MPKI: 14.6152
DTLB LOAD TRANSLATION NON_SPEC    ACCESS:   72124048  HIT:   69201008  MISS:    2923040  HIT %:    95.9472  MISS %:     4.0528   MPKI: 14.6152
DTLB PREFETCH  REQUESTED:          0  ISSUED:          0  USEFUL:          0  USELESS:          0
DTLB USEFUL LOAD PREFETCHES:          0 PREFETCH ISSUED TO LOWER LEVEL:          0  ACCURACY: -nan
DTLB TIMELY PREFETCHES:          0 LATE PREFETCHES: 0 DROPPED PREFETCHES: 0
DTLB COMMIT LATE PREFETCHES: 0 NORMAL LATE: 0 MISSED OPPORTUNITY: 0 UNCOVERED: 0
DTLB PREFETCHES SAME FILL-ORIGIN LEVEL: 0 DIFFERENT FILL-ORIGIN LEVEL: 0
DTLB AVERAGE MISS LATENCY: 92.6831 cycles
DTLB AVERAGE MISS LATENCY LOAD: -nan cycles
DTLB AVERAGE MISS LATENCY PREFETCH: -nan cycles
DTLB AVERAGE MSHR OCCUPANCY: 0.180971
DTLB MSHR FULL: 0
DTLB RQ	ACCESS:   84424879	FORWARD:          0	MERGED:   11401119	TO_CACHE:   73023760

STLB SPEC fills:          0  NON-SPEC fills:          0
STLB Test counter :          0
STLB Leapfrog:          0
STLB MSHR merge:          0
STLB TOTAL     ACCESS:    2923040  HIT:    1478371  MISS:    1444669  HIT %:    50.5765  MISS %:    49.4235   MPKI: 7.22334
STLB LOAD TRANSLATION NON_SPEC    ACCESS:    2923040  HIT:    1478371  MISS:    1444669  HIT %:    50.5765  MISS %:    49.4235   MPKI: 7.22334
STLB PREFETCH  REQUESTED:          0  ISSUED:          0  USEFUL:          0  USELESS:          0
STLB USEFUL LOAD PREFETCHES:          0 PREFETCH ISSUED TO LOWER LEVEL:          0  ACCURACY: -nan
STLB TIMELY PREFETCHES:          0 LATE PREFETCHES: 0 DROPPED PREFETCHES: 0
STLB COMMIT LATE PREFETCHES: 0 NORMAL LATE: 0 MISSED OPPORTUNITY: 0 UNCOVERED: 0
STLB PREFETCHES SAME FILL-ORIGIN LEVEL: 0 DIFFERENT FILL-ORIGIN LEVEL: 0
STLB AVERAGE MISS LATENCY: 169.185 cycles
STLB AVERAGE MISS LATENCY LOAD: -nan cycles
STLB AVERAGE MISS LATENCY PREFETCH: -nan cycles
STLB AVERAGE MSHR OCCUPANCY: 0.250387
STLB MSHR FULL: 0
STLB RQ	ACCESS:    2923040	FORWARD:          0	MERGED:          0	TO_CACHE:    2923040

STLB Hit, L1D data hit: 0
STLB Hit, L2C data hit: 0
STLB Hit, LLC data hit: 0
STLB Hit, LLC data miss: 0
STLB STLB hints to L2: 0
L0D SPEC fills:   43260778  NON-SPEC fills:          0
L0D TimeGuard Request with older TS:     344557 Restricted eviction:     139718 read:     263927
L0D Test counter :          0
L0D Leapfrog:          0
L0D MSHR merge:     648815
L0D TOTAL     ACCESS:   63528008  HIT:    4369134  MISS:   59158874  HIT %:    6.87749  MISS %:    93.1225   MPKI: 295.794
L0D LOAD      TOTAL       ACCESS:   63528008  HIT:    4369134  MISS:   59158874  HIT %:    6.87749  MISS %:    93.1225   MPKI: 295.794
L0D LOAD      NON_SPEC    ACCESS:   16205437  HIT:     447058  MISS:   15758379  HIT %:    2.75869  MISS %:    97.2413   MPKI: 78.7919
L0D LOAD      SPEC        ACCESS:   47322571  HIT:    3922076  MISS:   43400495  HIT %:    8.28796  MISS %:     91.712   MPKI: 217.002
L0D PREFETCH  REQUESTED:          0  ISSUED:          0  USEFUL:          0  USELESS:          0
L0D USEFUL LOAD PREFETCHES:          0 PREFETCH ISSUED TO LOWER LEVEL:          0  ACCURACY: -nan
L0D TIMELY PREFETCHES:          0 LATE PREFETCHES: 0 DROPPED PREFETCHES: 0
L0D COMMIT LATE PREFETCHES: 0 NORMAL LATE: 0 MISSED OPPORTUNITY: 0 UNCOVERED: 59158874
L0D PREFETCHES SAME FILL-ORIGIN LEVEL: 0 DIFFERENT FILL-ORIGIN LEVEL: 0
L0D AVERAGE MISS LATENCY: 15.5137 cycles
L0D AVERAGE MISS LATENCY LOAD: 15.5137 cycles
L0D AVERAGE MISS LATENCY PREFETCH: -nan cycles
L0D AVERAGE MSHR OCCUPANCY: 0.773864
L0D MSHR FULL: 1.09074e-07
L0D RQ	ACCESS:   67631604	FORWARD:          0	MERGED:    3454783	TO_CACHE:   64176821
L0D WQ	ACCESS:   20248058	FORWARD:          0	MERGED:          0	TO_CACHE:   20248058

L1D SPEC fills:          0  NON-SPEC fills:    2118056
L1D Test counter :          0
L1D Leapfrog:          0
L1D MSHR merge:       3480
L1D TOTAL     ACCESS:  127733902  HIT:  115910276  MISS:   11823626  HIT %:    90.7435  MISS %:    9.25645   MPKI: 59.1181
L1D LOAD      TOTAL       ACCESS:   59155394  HIT:   52198342  MISS:    6957052  HIT %:    88.2394  MISS %:    11.7606   MPKI: 34.7853
L1D LOAD      NON_SPEC    ACCESS:   15757930  HIT:   13639874  MISS:    2118056  HIT %:    86.5588  MISS %:    13.4412   MPKI: 10.5903
L1D LOAD      SPEC        ACCESS:   43397464  HIT:   38558468  MISS:    4838996  HIT %:    88.8496  MISS %:    11.1504   MPKI: 24.195
L1D RFO       NON_SPEC    ACCESS:   18533613  HIT:   18481603  MISS:      52010  HIT %:    99.7194  MISS %:   0.280625   MPKI: 0.26005
L1D COMMIT LOAD NON_SPEC    ACCESS:    7033592  HIT:    6954882  MISS:      78710  HIT %:    98.8809  MISS %:    1.11906   MPKI: 0.39355
L1D COMMIT WRITE NON_SPEC    ACCESS:   43011303  HIT:   38275449  MISS:    4735854  HIT %:    88.9893  MISS %:    11.0107   MPKI: 23.6793
L1D PREFETCH  REQUESTED:          0  ISSUED:          0  USEFUL:          0  USELESS:          0
L1D USEFUL LOAD PREFETCHES:          0 PREFETCH ISSUED TO LOWER LEVEL:          0  ACCURACY: -nan
L1D TIMELY PREFETCHES:          0 LATE PREFETCHES: 0 DROPPED PREFETCHES: 0
L1D COMMIT LATE PREFETCHES: 0 NORMAL LATE: 0 MISSED OPPORTUNITY: 0 UNCOVERED: 6957052
L1D PREFETCHES SAME FILL-ORIGIN LEVEL: 0 DIFFERENT FILL-ORIGIN LEVEL: 0
L1D AVERAGE MISS LATENCY: 52.7215 cycles
L1D AVERAGE MISS LATENCY LOAD: 88.5068 cycles
L1D AVERAGE MISS LATENCY PREFETCH: -nan cycles
L1D AVERAGE MSHR OCCUPANCY: 0.28366
L1D MSHR FULL: 0
L1D RQ	ACCESS:   67385472	FORWARD:          0	MERGED:     598363	TO_CACHE:   66194207
L1D WQ	ACCESS:   63287295	FORWARD:     592902	MERGED:    1650958	TO_CACHE:   61636337

L1D UNIQUE REGIONS ACCESSED: 0
L1D REGIONS CONFLICTS: 0
L1D Cross Page Prefetch Requests: 0
L1D Same Page Prefetch Requests: 0
L1D ROI Sum of L1D PQ occupancy: 0
L1D PREFETCHES PUSHED FROM L2C: 0
L1I SPEC fills:          0  NON-SPEC fills:          0
L1I Test counter :          0
L1I Leapfrog:          0
L1I MSHR merge:          0
L1I TOTAL     ACCESS:   36249291  HIT:   36249291  MISS:          0  HIT %:        100  MISS %:          0   MPKI: 0
L1I LOAD      TOTAL       ACCESS:   36249291  HIT:   36249291  MISS:          0  HIT %:        100  MISS %:          0   MPKI: 0
L1I LOAD      NON_SPEC    ACCESS:   36249291  HIT:   36249291  MISS:          0  HIT %:        100  MISS %:          0   MPKI: 0
L1I PREFETCH  REQUESTED:          0  ISSUED:          0  USEFUL:          0  USELESS:          0
L1I USEFUL LOAD PREFETCHES:          0 PREFETCH ISSUED TO LOWER LEVEL:          0  ACCURACY: -nan
L1I TIMELY PREFETCHES:          0 LATE PREFETCHES: 0 DROPPED PREFETCHES: 0
L1I COMMIT LATE PREFETCHES: 0 NORMAL LATE: 0 MISSED OPPORTUNITY: 0 UNCOVERED: 0
L1I PREFETCHES SAME FILL-ORIGIN LEVEL: 0 DIFFERENT FILL-ORIGIN LEVEL: 0
L1I AVERAGE MISS LATENCY: -nan cycles
L1I AVERAGE MISS LATENCY LOAD: -nan cycles
L1I AVERAGE MISS LATENCY PREFETCH: -nan cycles
L1I AVERAGE MSHR OCCUPANCY: 0
L1I MSHR FULL: 0
L1I RQ	ACCESS:   57480095	FORWARD:          0	MERGED:   21230803	TO_CACHE:   36249292

BTB SPEC fills:          0  NON-SPEC fills:          0
BTB Test counter :          0
BTB Leapfrog:          0
BTB MSHR merge:          0
BTB TOTAL     ACCESS:   47143244  HIT:   44382765  MISS:    2760479  HIT %:    94.1445  MISS %:    5.85551   MPKI: 13.8024
BTB BRANCH_DIRECT_JUMP	ACCESS:    4520858  HIT:    4520837  MISS:         21
BTB BRANCH_INDIRECT	ACCESS:          0  HIT:          0  MISS:          0
BTB BRANCH_CONDITIONAL	ACCESS:   30060450  HIT:   30060408  MISS:         42
BTB BRANCH_DIRECT_CALL	ACCESS:    6072091  HIT:    6072078  MISS:         13
BTB BRANCH_INDIRECT_CALL	ACCESS:     208878  HIT:     208870  MISS:          8
BTB BRANCH_RETURN	ACCESS:    6280967  HIT:    3520572  MISS:    2760395
BTB BRANCH_OTHER ACCESS:          0  HIT:          0  MISS:          0

L2C SPEC fills:          0  NON-SPEC fills:    1166396
L2C Test counter :          0
L2C Leapfrog:          0
L2C MSHR merge:     260146
L2C TOTAL     ACCESS:   22349074  HIT:   13069019  MISS:    9280055  HIT %:    58.4768  MISS %:    41.5232   MPKI: 46.4003
L2C LOAD      TOTAL       ACCESS:    6956968  HIT:    2944437  MISS:    4012531  HIT %:    42.3236  MISS %:    57.6764   MPKI: 20.0627
L2C LOAD      NON_SPEC    ACCESS:    2118052  HIT:     951656  MISS:    1166396  HIT %:    44.9307  MISS %:    55.0693   MPKI: 5.83198
L2C LOAD      SPEC        ACCESS:    4838916  HIT:    1992781  MISS:    2846135  HIT %:    41.1824  MISS %:    58.8176   MPKI: 14.2307
L2C RFO       NON_SPEC    ACCESS:      52010  HIT:      42467  MISS:       9543  HIT %:    81.6516  MISS %:    18.3484   MPKI: 0.047715
L2C PREFETCH  NON_SPEC    ACCESS:    3027486  HIT:    1218101  MISS:    1809385  HIT %:    40.2347  MISS %:    59.7653   MPKI: 9.04692
L2C WRITEBACK NON_SPEC    ACCESS:      53550  HIT:      52916  MISS:        634  HIT %:    98.8161  MISS %:    1.18394   MPKI: 0.00317
L2C CLEAN_EVICTION NON_SPEC    ACCESS:    4957016  HIT:    2136909  MISS:    2820107  HIT %:    43.1088  MISS %:    56.8912   MPKI: 14.1005
L2C COMMIT LOAD NON_SPEC    ACCESS:      78706  HIT:      34208  MISS:      44498  HIT %:     43.463  MISS %:     56.537   MPKI: 0.22249
L2C LOAD TRANSLATION NON_SPEC    ACCESS:    7223338  HIT:    6639981  MISS:     583357  HIT %:     91.924  MISS %:      8.076   MPKI: 2.91678
L2C PREFETCH  REQUESTED:    4110935  ISSUED:    4110935  USEFUL:     540689  USELESS:    1266913
L2C USEFUL LOAD PREFETCHES:     540689 PREFETCH ISSUED TO LOWER LEVEL:    2069616  ACCURACY: 26.1251
L2C TIMELY PREFETCHES:     540689 LATE PREFETCHES: 260231 DROPPED PREFETCHES: 0
L2C COMMIT LATE PREFETCHES: 0 NORMAL LATE: 260231 MISSED OPPORTUNITY: 0 UNCOVERED: 3752300
L2C PREFETCHES SAME FILL-ORIGIN LEVEL: 2069616 DIFFERENT FILL-ORIGIN LEVEL: 0
L2C AVERAGE MISS LATENCY: 104.792 cycles
L2C AVERAGE MISS LATENCY LOAD: 132.635 cycles
L2C AVERAGE MISS LATENCY PREFETCH: 191.255 cycles
L2C AVERAGE MSHR OCCUPANCY: 1.12264
L2C MSHR FULL: 0.000142598
L2C RQ	ACCESS:   14311110	FORWARD:          0	MERGED:          0	TO_CACHE:   14311022
L2C WQ	ACCESS:    5010567	FORWARD:         97	MERGED:          1	TO_CACHE:    5010566
L2C PQ	ACCESS:    4110935	FORWARD:          0	MERGED:          0	TO_CACHE:    4110926

L2C Instructions Evicting Data 0
L2C Translations Evicting Data 516016
L2C Data Evicting Data 2774274
L2C Instructions Evicting Instructions 0
L2C Translations Evicting Instructions 0
L2C Data Evicting Instructions 0
L2C Instructions Evicting Translations 0
L2C Translations Evicting Translations 67341
L2C Data Evicting Translations 255548
L2C Dense regions hint from L2: 0
PSCL5 SPEC fills:          0  NON-SPEC fills:          0
PSCL5 Test counter :          0
PSCL5 Leapfrog:          0
PSCL5 MSHR merge:          0
PSCL5 TOTAL     ACCESS:          0  HIT:          0  MISS:          0  HIT %:       -nan  MISS %:       -nan   MPKI: 0
PSCL5 PREFETCH  REQUESTED:          0  ISSUED:          0  USEFUL:          0  USELESS:          0
PSCL5 USEFUL LOAD PREFETCHES:          0 PREFETCH ISSUED TO LOWER LEVEL:          0  ACCURACY: -nan
PSCL5 TIMELY PREFETCHES:          0 LATE PREFETCHES: 0 DROPPED PREFETCHES: 0
PSCL5 COMMIT LATE PREFETCHES: 0 NORMAL LATE: 0 MISSED OPPORTUNITY: 0 UNCOVERED: 0
PSCL5 PREFETCHES SAME FILL-ORIGIN LEVEL: 0 DIFFERENT FILL-ORIGIN LEVEL: 0

PSCL4 SPEC fills:          0  NON-SPEC fills:          0
PSCL4 Test counter :          0
PSCL4 Leapfrog:          0
PSCL4 MSHR merge:          0
PSCL4 TOTAL     ACCESS:          0  HIT:          0  MISS:          0  HIT %:       -nan  MISS %:       -nan   MPKI: 0
PSCL4 PREFETCH  REQUESTED:          0  ISSUED:          0  USEFUL:          0  USELESS:          0
PSCL4 USEFUL LOAD PREFETCHES:          0 PREFETCH ISSUED TO LOWER LEVEL:          0  ACCURACY: -nan
PSCL4 TIMELY PREFETCHES:          0 LATE PREFETCHES: 0 DROPPED PREFETCHES: 0
PSCL4 COMMIT LATE PREFETCHES: 0 NORMAL LATE: 0 MISSED OPPORTUNITY: 0 UNCOVERED: 0
PSCL4 PREFETCHES SAME FILL-ORIGIN LEVEL: 0 DIFFERENT FILL-ORIGIN LEVEL: 0

PSCL3 SPEC fills:          0  NON-SPEC fills:          0
PSCL3 Test counter :          0
PSCL3 Leapfrog:          0
PSCL3 MSHR merge:          0
PSCL3 TOTAL     ACCESS:          0  HIT:          0  MISS:          0  HIT %:       -nan  MISS %:       -nan   MPKI: 0
PSCL3 PREFETCH  REQUESTED:          0  ISSUED:          0  USEFUL:          0  USELESS:          0
PSCL3 USEFUL LOAD PREFETCHES:          0 PREFETCH ISSUED TO LOWER LEVEL:          0  ACCURACY: -nan
PSCL3 TIMELY PREFETCHES:          0 LATE PREFETCHES: 0 DROPPED PREFETCHES: 0
PSCL3 COMMIT LATE PREFETCHES: 0 NORMAL LATE: 0 MISSED OPPORTUNITY: 0 UNCOVERED: 0
PSCL3 PREFETCHES SAME FILL-ORIGIN LEVEL: 0 DIFFERENT FILL-ORIGIN LEVEL: 0

PSCL2 SPEC fills:          0  NON-SPEC fills:          0
PSCL2 Test counter :          0
PSCL2 Leapfrog:          0
PSCL2 MSHR merge:          0
PSCL2 TOTAL     ACCESS:          0  HIT:          0  MISS:          0  HIT %:       -nan  MISS %:       -nan   MPKI: 0
PSCL2 PREFETCH  REQUESTED:          0  ISSUED:          0  USEFUL:          0  USELESS:          0
PSCL2 USEFUL LOAD PREFETCHES:          0 PREFETCH ISSUED TO LOWER LEVEL:          0  ACCURACY: -nan
PSCL2 TIMELY PREFETCHES:          0 LATE PREFETCHES: 0 DROPPED PREFETCHES: 0
PSCL2 COMMIT LATE PREFETCHES: 0 NORMAL LATE: 0 MISSED OPPORTUNITY: 0 UNCOVERED: 0
PSCL2 PREFETCHES SAME FILL-ORIGIN LEVEL: 0 DIFFERENT FILL-ORIGIN LEVEL: 0

LLC SPEC fills:          0  NON-SPEC fills:     706901
LLC Test counter :          0
LLC Leapfrog:          0
LLC MSHR merge:          0
LLC TOTAL     ACCESS:    9952209  HIT:    3611254  MISS:    6340955  HIT %:     36.286  MISS %:     63.714   MPKI: 31.7048
LLC LOAD      TOTAL       ACCESS:    3752361  HIT:    1289086  MISS:    2463275  HIT %:     34.354  MISS %:     65.646   MPKI: 12.3164
LLC LOAD      NON_SPEC    ACCESS:    1026226  HIT:     319325  MISS:     706901  HIT %:    31.1164  MISS %:    68.8836   MPKI: 3.5345
LLC LOAD      SPEC        ACCESS:    2726135  HIT:     969761  MISS:    1756374  HIT %:    35.5727  MISS %:    64.4273   MPKI: 8.78187
LLC RFO       NON_SPEC    ACCESS:       9462  HIT:       6017  MISS:       3445  HIT %:    63.5912  MISS %:    36.4088   MPKI: 0.017225
LLC PREFETCH  NON_SPEC    ACCESS:    2069604  HIT:     428339  MISS:    1641265  HIT %:    20.6967  MISS %:    79.3033   MPKI: 8.20632
LLC WRITEBACK NON_SPEC    ACCESS:      10504  HIT:      10338  MISS:        166  HIT %:    98.4196  MISS %:    1.58035   MPKI: 0.00083
LLC CLEAN_EVICTION NON_SPEC    ACCESS:    3482428  HIT:    1644766  MISS:    1837662  HIT %:    47.2304  MISS %:    52.7696   MPKI: 9.18831
LLC COMMIT LOAD NON_SPEC    ACCESS:      44493  HIT:      23382  MISS:      21111  HIT %:    52.5521  MISS %:    47.4479   MPKI: 0.105555
LLC LOAD TRANSLATION NON_SPEC    ACCESS:     583357  HIT:     209326  MISS:     374031  HIT %:     35.883  MISS %:     64.117   MPKI: 1.87015
LLC PREFETCH  REQUESTED:          0  ISSUED:          0  USEFUL:      87702  USELESS:    1548209
LLC USEFUL LOAD PREFETCHES:      87702 PREFETCH ISSUED TO LOWER LEVEL:    1641265  ACCURACY: 5.34356
LLC TIMELY PREFETCHES:      87702 LATE PREFETCHES: 0 DROPPED PREFETCHES: 0
LLC COMMIT LATE PREFETCHES: 0 NORMAL LATE: 0 MISSED OPPORTUNITY: 0 UNCOVERED: 2463275
LLC PREFETCHES SAME FILL-ORIGIN LEVEL: 0 DIFFERENT FILL-ORIGIN LEVEL: 0
LLC AVERAGE MISS LATENCY: 128.102 cycles
LLC AVERAGE MISS LATENCY LOAD: 168.063 cycles
LLC AVERAGE MISS LATENCY PREFETCH: 196.932 cycles
LLC AVERAGE MSHR OCCUPANCY: 1.10387
LLC MSHR FULL: 0
LLC RQ	ACCESS:    4389698	FORWARD:          0	MERGED:          0	TO_CACHE:    4389673
LLC WQ	ACCESS:    3492932	FORWARD:         37	MERGED:          0	TO_CACHE:    3492932
LLC PQ	ACCESS:    2069616	FORWARD:          0	MERGED:          0	TO_CACHE:    2069604

LLC Dense regions hint to LLC: 0

RAW hits: 1754493
Loads Generated: 69386095
Loads sent to L1D: 67631604
Stores Generated: 20248054
Stores sent to L1D: 20248058
Major fault: 0 Minor fault: 167265
Allocated PAGES: 167265
Total Load insts: 83815934
Total Non-spec loads: 18182724
Percentage of speculative loads: 78.3064

LeapFrogging counter: 1382
Commit hits: 43039237 miss: 8226600
Commit hit %: 83.9531 miss %: 16.0469
Commits not translated: 0
Loads retired: 6957052
Stores retired: 20248058
Cache fills: 6957052
L1D response latency: 88.5068 cycles
Load retirement latency: 189.751 cycles
OOO test counter: 0
Discarded buffer inserts: 43039237 hits: 8018 hit %: 0.0186295
Filter prediction accuracy: -nan
[Bingo] PHT Access: 2631157
[Bingo] PHT Hit PC+Addr: 264508
[Bingo] PHT Hit PC+Offs: 2366499
[Bingo] PHT Miss: 150
[Bingo] Prefetch PC+Addr: 0
[Bingo] Prefetch PC+Offs: 0
[Bingo] Useful PC+Addr: 0
[Bingo] Useful PC+Offs: 0
[Bingo] Useless PC+Addr: 0
[Bingo] Useless PC+Offs: 0
[Bingo] L1 Prefetch per Region: 0
[Bingo] L2 Prefetch per Region: 2.58407
[Bingo] L3 Prefetch per Region: 0
[Bingo] No Prefetch per Region: 29.4159
[Bingo] Number of Voters Mean: 15.9965
[Bingo] Number of Voters SD: 8.06534
PHT read accesses: 40327162
PHT write accesses: 2145889
AT read accesses: 4331247
AT write accesses: 6446978
FT read accesses: 6507106
FT write accesses: 2631157
PS read accesses: 5281280
PS write accesses: 2631007
PHT tag read accesses: 105064261
PHT tag write accesses: 2410397
AT tag read accesses: 317030623
AT tag write accesses: 6477136
FT tag read accesses: 281565103
FT tag write accesses: 6967652
PS tag read accesses: 205339563
PS tag write accesses: 7907292

DRAM Statistics
 CHANNEL 0
 RQ ROW_BUFFER_HIT:     452713  ROW_BUFFER_MISS:    4050171
 DBUS_CONGESTED:        683
 WQ ROW_BUFFER_HIT:     722824  ROW_BUFFER_MISS:    1705289  FULL:       1359

 AVG_CONGESTED_CYCLE: 5
 All warmup complete: 2
Channel 0 Bank busy for read cycles: 0
Channel 0 Bank busy for write cycles: 0
Channel 0
Rank 0
0banks busy for read cycles: 320757537
0banks busy for write cycles: 290952
1banks busy for read cycles: 106329469
1banks busy for write cycles: 47032482
2banks busy for read cycles: 115406051
2banks busy for write cycles: 34980437
3banks busy for read cycles: 35463117
3banks busy for write cycles: 24956063
4banks busy for read cycles: 19657201
4banks busy for write cycles: 17835430
5banks busy for read cycles: 7577545
5banks busy for write cycles: 13783209
6banks busy for read cycles: 4202526
6banks busy for write cycles: 12100261
7banks busy for read cycles: 2744537
7banks busy for write cycles: 12176763
8banks busy for read cycles: 3371802
8banks busy for write cycles: 10995980

CPU 0 Branch Prediction Accuracy: 94.7162% MPKI: 13.0983 Average ROB Occupancy at Mispredict: 23.0262
Branch types
NOT_BRANCH: 150420417 75.2102%
BRANCH_DIRECT_JUMP: 4520858 2.26043%
BRANCH_INDIRECT: 0 0%
BRANCH_CONDITIONAL: 32496416 16.2482%
BRANCH_DIRECT_CALL: 6072091 3.03605%
BRANCH_INDIRECT_CALL: 208878 0.104439%
BRANCH_RETURN: 6280967 3.14048%
BRANCH_OTHER: 0 0%

DRAM PAGES: 1048576
Allocated PAGES: 167265
