
*** ChampSim Multicore Out-of-Order Simulator ***

Warmup Instructions: 50000000
Simulation Instructions: 200000000
Number of CPUs: 1
LLC sets: 2048
LLC ways: 16
L0D sets: 16
L0D ways: 2
ROB size: 352
LQ size: 128
SQ size: 72
Secure Berti: OFF
Berti: OFF
Berti Fill: OFF
On commit prefetching: OFF
Hit-based filter: OFF
Time-guarding: ON
Free-slotting: ON
Leap-frogging: ON
Train prefetcher on L0D bypass: OFF
No translation penalty for prefetchers: OFF
Prefetch to L0D only: OFF
Prefetch to L1D only: OFF
Clean evictions: ON
Commit loads: ON
Commit write: ON
Fill commit loads to L2C, LLC: ON
DRAM IO FREQUENCY: 6400
ROB SIZE: 352
Off-chip DRAM Size: 4096 MB Channels: 1 Width: 64-bit Data Rate: 6400 MT/s
CPU 0 runs /home/sumon/secure_berti/GhostMinion/../../traces/spec/605.mcf_s-472B.champsimtrace.xz
.xz
BTB has LRU replacement policy
ITLB has LRU replacement policy
DTLB has LRU replacement policy
STLB has LRU replacement policy
L1I has LRU replacement policy
L0D has LRU replacement policy
L1D has LRU replacement policy
Bingo PHT WAYS: 16 and PHT_SIZE: 16384
L2C has LRU replacement policy
LLC has LRU replacement policy
Heartbeat CPU 0 instructions: 10000001 cycles: 5534248 heartbeat IPC: 1.80693 cumulative IPC: 1.80693 (Simulation time: 0 hr 1 min 34 sec) 
Heartbeat CPU 0 instructions: 20000001 cycles: 10812336 heartbeat IPC: 1.89463 cumulative IPC: 1.84974 (Simulation time: 0 hr 3 min 24 sec) 
Heartbeat CPU 0 instructions: 30000003 cycles: 15978548 heartbeat IPC: 1.93565 cumulative IPC: 1.87752 (Simulation time: 0 hr 5 min 31 sec) 
Heartbeat CPU 0 instructions: 40000001 cycles: 21544322 heartbeat IPC: 1.79669 cumulative IPC: 1.85664 (Simulation time: 0 hr 7 min 23 sec) 
Heartbeat CPU 0 instructions: 50000001 cycles: 27001494 heartbeat IPC: 1.83245 cumulative IPC: 1.85175 (Simulation time: 0 hr 9 min 20 sec) 

Warmup complete CPU 0 instructions: 50000001 cycles: 27001494 (Simulation time: 0 hr 9 min 20 sec) 

Heartbeat CPU 0 instructions: 60000001 cycles: 53107475 heartbeat IPC: 0.383054 cumulative IPC: 0.383054 (Simulation time: 0 hr 12 min 17 sec) 
Heartbeat CPU 0 instructions: 70000003 cycles: 76863094 heartbeat IPC: 0.420953 cumulative IPC: 0.40111 (Simulation time: 0 hr 15 min 2 sec) 
Heartbeat CPU 0 instructions: 80000002 cycles: 109615776 heartbeat IPC: 0.305318 cumulative IPC: 0.363133 (Simulation time: 0 hr 18 min 20 sec) 
Heartbeat CPU 0 instructions: 90000000 cycles: 133651320 heartbeat IPC: 0.41605 cumulative IPC: 0.375059 (Simulation time: 0 hr 21 min 5 sec) 
Heartbeat CPU 0 instructions: 100000002 cycles: 163515208 heartbeat IPC: 0.334853 cumulative IPC: 0.366264 (Simulation time: 0 hr 24 min 15 sec) 
Heartbeat CPU 0 instructions: 110000000 cycles: 185678900 heartbeat IPC: 0.451188 cumulative IPC: 0.378126 (Simulation time: 0 hr 26 min 51 sec) 
Heartbeat CPU 0 instructions: 120000002 cycles: 212514594 heartbeat IPC: 0.372638 cumulative IPC: 0.377332 (Simulation time: 0 hr 29 min 40 sec) 
Heartbeat CPU 0 instructions: 130000002 cycles: 240922793 heartbeat IPC: 0.352011 cumulative IPC: 0.373969 (Simulation time: 0 hr 32 min 26 sec) 
Heartbeat CPU 0 instructions: 140000003 cycles: 270231354 heartbeat IPC: 0.341197 cumulative IPC: 0.37002 (Simulation time: 0 hr 35 min 6 sec) 
Heartbeat CPU 0 instructions: 150000002 cycles: 300070483 heartbeat IPC: 0.33513 cumulative IPC: 0.366208 (Simulation time: 0 hr 37 min 41 sec) 
Heartbeat CPU 0 instructions: 160000001 cycles: 325957581 heartbeat IPC: 0.386293 cumulative IPC: 0.367947 (Simulation time: 0 hr 40 min 21 sec) 
Heartbeat CPU 0 instructions: 170000001 cycles: 349598943 heartbeat IPC: 0.422987 cumulative IPC: 0.371981 (Simulation time: 0 hr 42 min 53 sec) 
Heartbeat CPU 0 instructions: 180000002 cycles: 371967603 heartbeat IPC: 0.447054 cumulative IPC: 0.376849 (Simulation time: 0 hr 45 min 19 sec) 
Heartbeat CPU 0 instructions: 190000000 cycles: 406961396 heartbeat IPC: 0.285765 cumulative IPC: 0.36846 (Simulation time: 0 hr 48 min 16 sec) 
Heartbeat CPU 0 instructions: 200000002 cycles: 433561413 heartbeat IPC: 0.37594 cumulative IPC: 0.368949 (Simulation time: 0 hr 50 min 40 sec) 
Heartbeat CPU 0 instructions: 210000003 cycles: 457713775 heartbeat IPC: 0.414038 cumulative IPC: 0.371478 (Simulation time: 0 hr 52 min 56 sec) 
Heartbeat CPU 0 instructions: 220000000 cycles: 486405098 heartbeat IPC: 0.348537 cumulative IPC: 0.370045 (Simulation time: 0 hr 55 min 26 sec) 
Heartbeat CPU 0 instructions: 230000002 cycles: 513643449 heartbeat IPC: 0.36713 cumulative IPC: 0.369882 (Simulation time: 0 hr 57 min 52 sec) 
Heartbeat CPU 0 instructions: 240000002 cycles: 547955513 heartbeat IPC: 0.291443 cumulative IPC: 0.364715 (Simulation time: 1 hr 0 min 34 sec) 
Heartbeat CPU 0 instructions: 250000000 cycles: 586772430 heartbeat IPC: 0.25762 cumulative IPC: 0.357289 (Simulation time: 1 hr 3 min 19 sec) 
Finished CPU 0 instructions: 200000000 cycles: 559770938 cumulative IPC: 0.357289 (Simulation time: 1 hr 3 min 19 sec) 
 Instruction ID: 250000263

ChampSim completed all CPUs

Region of Interest Statistics

CPU 0 cumulative IPC: 0.357289 instructions: 200000000 cycles: 559770938
ITLB SPEC fills:          0  NON-SPEC fills:          0
ITLB Test counter :          0
ITLB Leapfrog:          0
ITLB MSHR merge:          0
ITLB TOTAL     ACCESS:   34218987  HIT:   34218987  MISS:          0  HIT %:        100  MISS %:          0   MPKI: 0
ITLB LOAD TRANSLATION NON_SPEC    ACCESS:   34218987  HIT:   34218987  MISS:          0  HIT %:        100  MISS %:          0   MPKI: 0
ITLB PREFETCH  REQUESTED:          0  ISSUED:          0  USEFUL:          0  USELESS:          0
ITLB USEFUL LOAD PREFETCHES:          0 PREFETCH ISSUED TO LOWER LEVEL:          0  ACCURACY: -nan
ITLB TIMELY PREFETCHES:          0 LATE PREFETCHES: 0 DROPPED PREFETCHES: 0
ITLB COMMIT LATE PREFETCHES: 0 NORMAL LATE: 0 MISSED OPPORTUNITY: 0 UNCOVERED: 0
ITLB PREFETCHES SAME FILL-ORIGIN LEVEL: 0 DIFFERENT FILL-ORIGIN LEVEL: 0
ITLB AVERAGE MISS LATENCY: -nan cycles
ITLB AVERAGE MISS LATENCY LOAD: -nan cycles
ITLB AVERAGE MISS LATENCY PREFETCH: -nan cycles
ITLB AVERAGE MSHR OCCUPANCY: 0
ITLB MSHR FULL: 0
ITLB RQ	ACCESS:   44203374	FORWARD:          0	MERGED:    9984388	TO_CACHE:   34218986

DTLB SPEC fills:          0  NON-SPEC fills:          0
DTLB Test counter :          0
DTLB Leapfrog:          0
DTLB MSHR merge:          0
DTLB TOTAL     ACCESS:   56268923  HIT:   55554132  MISS:     714791  HIT %:    98.7297  MISS %:    1.27031   MPKI: 3.57396
DTLB LOAD TRANSLATION NON_SPEC    ACCESS:   56268923  HIT:   55554132  MISS:     714791  HIT %:    98.7297  MISS %:    1.27031   MPKI: 3.57396
DTLB PREFETCH  REQUESTED:          0  ISSUED:          0  USEFUL:          0  USELESS:          0
DTLB USEFUL LOAD PREFETCHES:          0 PREFETCH ISSUED TO LOWER LEVEL:          0  ACCURACY: -nan
DTLB TIMELY PREFETCHES:          0 LATE PREFETCHES: 0 DROPPED PREFETCHES: 0
DTLB COMMIT LATE PREFETCHES: 0 NORMAL LATE: 0 MISSED OPPORTUNITY: 0 UNCOVERED: 0
DTLB PREFETCHES SAME FILL-ORIGIN LEVEL: 0 DIFFERENT FILL-ORIGIN LEVEL: 0
DTLB AVERAGE MISS LATENCY: 60.7997 cycles
DTLB AVERAGE MISS LATENCY LOAD: -nan cycles
DTLB AVERAGE MISS LATENCY PREFETCH: -nan cycles
DTLB AVERAGE MSHR OCCUPANCY: 0.0500543
DTLB MSHR FULL: 0
DTLB RQ	ACCESS:   91789299	FORWARD:          0	MERGED:   35061457	TO_CACHE:   56727842

STLB SPEC fills:          0  NON-SPEC fills:          0
STLB Test counter :          0
STLB Leapfrog:          0
STLB MSHR merge:          0
STLB TOTAL     ACCESS:     714791  HIT:     454922  MISS:     259869  HIT %:    63.6441  MISS %:    36.3559   MPKI: 1.29934
STLB LOAD TRANSLATION NON_SPEC    ACCESS:     714791  HIT:     454922  MISS:     259869  HIT %:    63.6441  MISS %:    36.3559   MPKI: 1.29934
STLB PREFETCH  REQUESTED:          0  ISSUED:          0  USEFUL:          0  USELESS:          0
STLB USEFUL LOAD PREFETCHES:          0 PREFETCH ISSUED TO LOWER LEVEL:          0  ACCURACY: -nan
STLB TIMELY PREFETCHES:          0 LATE PREFETCHES: 0 DROPPED PREFETCHES: 0
STLB COMMIT LATE PREFETCHES: 0 NORMAL LATE: 0 MISSED OPPORTUNITY: 0 UNCOVERED: 0
STLB PREFETCHES SAME FILL-ORIGIN LEVEL: 0 DIFFERENT FILL-ORIGIN LEVEL: 0
STLB AVERAGE MISS LATENCY: 142.388 cycles
STLB AVERAGE MISS LATENCY LOAD: -nan cycles
STLB AVERAGE MISS LATENCY PREFETCH: -nan cycles
STLB AVERAGE MSHR OCCUPANCY: 0.0247989
STLB MSHR FULL: 0
STLB RQ	ACCESS:     714791	FORWARD:          0	MERGED:          0	TO_CACHE:     714791

STLB Hit, L1D data hit: 0
STLB Hit, L2C data hit: 0
STLB Hit, LLC data hit: 0
STLB Hit, LLC data miss: 0
STLB STLB hints to L2: 0
L0D SPEC fills:   29735443  NON-SPEC fills:          0
L0D TimeGuard Request with older TS:     714340 Restricted eviction:     217561 read:     697957
L0D Test counter :          0
L0D Leapfrog:          0
L0D MSHR merge:    2395937
L0D TOTAL     ACCESS:   43144952  HIT:    5881980  MISS:   37262972  HIT %:    13.6331  MISS %:    86.3669   MPKI: 186.315
L0D LOAD      TOTAL       ACCESS:   43144952  HIT:    5881980  MISS:   37262972  HIT %:    13.6331  MISS %:    86.3669   MPKI: 186.315
L0D LOAD      NON_SPEC    ACCESS:    7703434  HIT:     393466  MISS:    7309968  HIT %:    5.10767  MISS %:    94.8923   MPKI: 36.5498
L0D LOAD      SPEC        ACCESS:   35441518  HIT:    5488514  MISS:   29953004  HIT %:    15.4861  MISS %:    84.5139   MPKI: 149.765
L0D PREFETCH  REQUESTED:          0  ISSUED:          0  USEFUL:          0  USELESS:          0
L0D USEFUL LOAD PREFETCHES:          0 PREFETCH ISSUED TO LOWER LEVEL:          0  ACCURACY: -nan
L0D TIMELY PREFETCHES:          0 LATE PREFETCHES: 0 DROPPED PREFETCHES: 0
L0D COMMIT LATE PREFETCHES: 0 NORMAL LATE: 0 MISSED OPPORTUNITY: 0 UNCOVERED: 37262972
L0D PREFETCHES SAME FILL-ORIGIN LEVEL: 0 DIFFERENT FILL-ORIGIN LEVEL: 0
L0D AVERAGE MISS LATENCY: 34.5127 cycles
L0D AVERAGE MISS LATENCY LOAD: 34.5127 cycles
L0D AVERAGE MISS LATENCY PREFETCH: -nan cycles
L0D AVERAGE MSHR OCCUPANCY: 3.33542
L0D MSHR FULL: 0.251381
L0D RQ	ACCESS:   66812232	FORWARD:          0	MERGED:   21271351	TO_CACHE:   45540881
L0D WQ	ACCESS:   46248418	FORWARD:          0	MERGED:          0	TO_CACHE:   46248418

L1D SPEC fills:          0  NON-SPEC fills:    1454528
L1D Test counter :          0
L1D Leapfrog:          0
L1D MSHR merge:       7693
L1D TOTAL     ACCESS:  127072723  HIT:  107451134  MISS:   19621589  HIT %:    84.5588  MISS %:    15.4412   MPKI: 98.1079
L1D LOAD      TOTAL       ACCESS:   37255279  HIT:   26795757  MISS:   10459522  HIT %:    71.9247  MISS %:    28.0753   MPKI: 52.2976
L1D LOAD      NON_SPEC    ACCESS:    7307383  HIT:    5852855  MISS:    1454528  HIT %:    80.0951  MISS %:    19.9049   MPKI: 7.27264
L1D LOAD      SPEC        ACCESS:   29947896  HIT:   20942902  MISS:    9004994  HIT %:    69.9311  MISS %:    30.0689   MPKI: 45.025
L1D RFO       NON_SPEC    ACCESS:   43987503  HIT:   43550288  MISS:     437215  HIT %:     99.006  MISS %:   0.993953   MPKI: 2.18608
L1D COMMIT LOAD NON_SPEC    ACCESS:   16763321  HIT:   16338582  MISS:     424739  HIT %:    97.4663  MISS %:    2.53374   MPKI: 2.1237
L1D COMMIT WRITE NON_SPEC    ACCESS:   29066620  HIT:   20766507  MISS:    8300113  HIT %:    71.4445  MISS %:    28.5555   MPKI: 41.5006
L1D PREFETCH  REQUESTED:          0  ISSUED:          0  USEFUL:          0  USELESS:          0
L1D USEFUL LOAD PREFETCHES:          0 PREFETCH ISSUED TO LOWER LEVEL:          0  ACCURACY: -nan
L1D TIMELY PREFETCHES:          0 LATE PREFETCHES: 0 DROPPED PREFETCHES: 0
L1D COMMIT LATE PREFETCHES: 0 NORMAL LATE: 0 MISSED OPPORTUNITY: 0 UNCOVERED: 10459522
L1D PREFETCHES SAME FILL-ORIGIN LEVEL: 0 DIFFERENT FILL-ORIGIN LEVEL: 0
L1D AVERAGE MISS LATENCY: 62.2465 cycles
L1D AVERAGE MISS LATENCY LOAD: 101.064 cycles
L1D AVERAGE MISS LATENCY PREFETCH: -nan cycles
L1D AVERAGE MSHR OCCUPANCY: 1.21458
L1D MSHR FULL: 1.47506e-05
L1D RQ	ACCESS:   66113538	FORWARD:          0	MERGED:   10158781	TO_CACHE:   54098651
L1D WQ	ACCESS:   75381676	FORWARD:    1856106	MERGED:     877743	TO_CACHE:   74503933

L1D UNIQUE REGIONS ACCESSED: 0
L1D REGIONS CONFLICTS: 0
L1D Cross Page Prefetch Requests: 0
L1D Same Page Prefetch Requests: 0
L1D ROI Sum of L1D PQ occupancy: 0
L1D PREFETCHES PUSHED FROM L2C: 0
L1I SPEC fills:          0  NON-SPEC fills:          0
L1I Test counter :          0
L1I Leapfrog:          0
L1I MSHR merge:          0
L1I TOTAL     ACCESS:   44203374  HIT:   44203368  MISS:          6  HIT %:        100  MISS %: 1.35736e-05   MPKI: 3e-05
L1I LOAD      TOTAL       ACCESS:   44203374  HIT:   44203368  MISS:          6  HIT %:        100  MISS %: 1.35736e-05   MPKI: 3e-05
L1I LOAD      NON_SPEC    ACCESS:   44203374  HIT:   44203368  MISS:          6  HIT %:        100  MISS %: 1.35736e-05   MPKI: 3e-05
L1I PREFETCH  REQUESTED:          0  ISSUED:          0  USEFUL:          0  USELESS:          0
L1I USEFUL LOAD PREFETCHES:          0 PREFETCH ISSUED TO LOWER LEVEL:          0  ACCURACY: -nan
L1I TIMELY PREFETCHES:          0 LATE PREFETCHES: 0 DROPPED PREFETCHES: 0
L1I COMMIT LATE PREFETCHES: 0 NORMAL LATE: 0 MISSED OPPORTUNITY: 0 UNCOVERED: 6
L1I PREFETCHES SAME FILL-ORIGIN LEVEL: 0 DIFFERENT FILL-ORIGIN LEVEL: 0
L1I AVERAGE MISS LATENCY: 251 cycles
L1I AVERAGE MISS LATENCY LOAD: 251 cycles
L1I AVERAGE MISS LATENCY PREFETCH: -nan cycles
L1I AVERAGE MSHR OCCUPANCY: 4.52454e-08
L1I MSHR FULL: 0
L1I RQ	ACCESS:   58550740	FORWARD:          0	MERGED:   14347366	TO_CACHE:   44203374

BTB SPEC fills:          0  NON-SPEC fills:          0
BTB Test counter :          0
BTB Leapfrog:          0
BTB MSHR merge:          0
BTB TOTAL     ACCESS:   25427254  HIT:   25427215  MISS:         39  HIT %:    99.9998  MISS %: 0.000153379   MPKI: 0.000195
BTB BRANCH_DIRECT_JUMP	ACCESS:    2120382  HIT:    2120376  MISS:          6
BTB BRANCH_INDIRECT	ACCESS:          0  HIT:          0  MISS:          0
BTB BRANCH_CONDITIONAL	ACCESS:   23306391  HIT:   23306363  MISS:         28
BTB BRANCH_DIRECT_CALL	ACCESS:        241  HIT:        238  MISS:          3
BTB BRANCH_INDIRECT_CALL	ACCESS:          0  HIT:          0  MISS:          0
BTB BRANCH_RETURN	ACCESS:        240  HIT:        238  MISS:          2
BTB BRANCH_OTHER ACCESS:          0  HIT:          0  MISS:          0

L2C SPEC fills:          0  NON-SPEC fills:     201066
L2C Test counter :          0
L2C Leapfrog:          0
L2C MSHR merge:    1660576
L2C TOTAL     ACCESS:   31433124  HIT:   15202253  MISS:   16230871  HIT %:    48.3638  MISS %:    51.6362   MPKI: 81.1544
L2C LOAD      TOTAL       ACCESS:   10459484  HIT:    7254215  MISS:    3205269  HIT %:    69.3554  MISS %:    30.6446   MPKI: 16.0263
L2C LOAD      NON_SPEC    ACCESS:    1454534  HIT:    1253462  MISS:     201072  HIT %:    86.1762  MISS %:    13.8238   MPKI: 1.00536
L2C LOAD      SPEC        ACCESS:    9004950  HIT:    6000753  MISS:    3004197  HIT %:    66.6384  MISS %:    33.3616   MPKI: 15.021
L2C RFO       NON_SPEC    ACCESS:     437203  HIT:      42397  MISS:     394806  HIT %:    9.69733  MISS %:    90.3027   MPKI: 1.97403
L2C PREFETCH  NON_SPEC    ACCESS:    9735850  HIT:      75752  MISS:    9660098  HIT %:   0.778073  MISS %:    99.2219   MPKI: 48.3005
L2C WRITEBACK NON_SPEC    ACCESS:     441307  HIT:     440426  MISS:        881  HIT %:    99.8004  MISS %:   0.199634   MPKI: 0.004405
L2C CLEAN_EVICTION NON_SPEC    ACCESS:    8635332  HIT:    5852514  MISS:    2782818  HIT %:     67.774  MISS %:     32.226   MPKI: 13.9141
L2C COMMIT LOAD NON_SPEC    ACCESS:     424739  HIT:     277355  MISS:     147384  HIT %:    65.3001  MISS %:    34.6999   MPKI: 0.73692
L2C LOAD TRANSLATION NON_SPEC    ACCESS:    1299209  HIT:    1259594  MISS:      39615  HIT %:    96.9508  MISS %:    3.04916   MPKI: 0.198075
L2C PREFETCH  REQUESTED:   12019357  ISSUED:   12019357  USEFUL:    6823231  USELESS:    2839663
L2C USEFUL LOAD PREFETCHES:    6823231 PREFETCH ISSUED TO LOWER LEVEL:   11320741  ACCURACY: 60.2719
L2C TIMELY PREFETCHES:    6823231 LATE PREFETCHES: 1660644 DROPPED PREFETCHES: 0
L2C COMMIT LATE PREFETCHES: 0 NORMAL LATE: 1660644 MISSED OPPORTUNITY: 0 UNCOVERED: 1544625
L2C PREFETCHES SAME FILL-ORIGIN LEVEL: 11320741 DIFFERENT FILL-ORIGIN LEVEL: 0
L2C AVERAGE MISS LATENCY: 320.787 cycles
L2C AVERAGE MISS LATENCY LOAD: 294.141 cycles
L2C AVERAGE MISS LATENCY PREFETCH: 424.264 cycles
L2C AVERAGE MSHR OCCUPANCY: 15.6989
L2C MSHR FULL: 0.258599
L2C RQ	ACCESS:   12620690	FORWARD:          0	MERGED:          0	TO_CACHE:   12620635
L2C WQ	ACCESS:    9076641	FORWARD:         60	MERGED:          1	TO_CACHE:    9076640
L2C PQ	ACCESS:   12019357	FORWARD:          0	MERGED:          0	TO_CACHE:   12019352

L2C Instructions Evicting Data 6
L2C Translations Evicting Data 39564
L2C Data Evicting Data 10370750
L2C Instructions Evicting Instructions 0
L2C Translations Evicting Instructions 0
L2C Data Evicting Instructions 2
L2C Instructions Evicting Translations 0
L2C Translations Evicting Translations 51
L2C Data Evicting Translations 32602
L2C Dense regions hint from L2: 0
PSCL5 SPEC fills:          0  NON-SPEC fills:          0
PSCL5 Test counter :          0
PSCL5 Leapfrog:          0
PSCL5 MSHR merge:          0
PSCL5 TOTAL     ACCESS:          0  HIT:          0  MISS:          0  HIT %:       -nan  MISS %:       -nan   MPKI: 0
PSCL5 PREFETCH  REQUESTED:          0  ISSUED:          0  USEFUL:          0  USELESS:          0
PSCL5 USEFUL LOAD PREFETCHES:          0 PREFETCH ISSUED TO LOWER LEVEL:          0  ACCURACY: -nan
PSCL5 TIMELY PREFETCHES:          0 LATE PREFETCHES: 0 DROPPED PREFETCHES: 0
PSCL5 COMMIT LATE PREFETCHES: 0 NORMAL LATE: 0 MISSED OPPORTUNITY: 0 UNCOVERED: 0
PSCL5 PREFETCHES SAME FILL-ORIGIN LEVEL: 0 DIFFERENT FILL-ORIGIN LEVEL: 0

PSCL4 SPEC fills:          0  NON-SPEC fills:          0
PSCL4 Test counter :          0
PSCL4 Leapfrog:          0
PSCL4 MSHR merge:          0
PSCL4 TOTAL     ACCESS:          0  HIT:          0  MISS:          0  HIT %:       -nan  MISS %:       -nan   MPKI: 0
PSCL4 PREFETCH  REQUESTED:          0  ISSUED:          0  USEFUL:          0  USELESS:          0
PSCL4 USEFUL LOAD PREFETCHES:          0 PREFETCH ISSUED TO LOWER LEVEL:          0  ACCURACY: -nan
PSCL4 TIMELY PREFETCHES:          0 LATE PREFETCHES: 0 DROPPED PREFETCHES: 0
PSCL4 COMMIT LATE PREFETCHES: 0 NORMAL LATE: 0 MISSED OPPORTUNITY: 0 UNCOVERED: 0
PSCL4 PREFETCHES SAME FILL-ORIGIN LEVEL: 0 DIFFERENT FILL-ORIGIN LEVEL: 0

PSCL3 SPEC fills:          0  NON-SPEC fills:          0
PSCL3 Test counter :          0
PSCL3 Leapfrog:          0
PSCL3 MSHR merge:          0
PSCL3 TOTAL     ACCESS:          0  HIT:          0  MISS:          0  HIT %:       -nan  MISS %:       -nan   MPKI: 0
PSCL3 PREFETCH  REQUESTED:          0  ISSUED:          0  USEFUL:          0  USELESS:          0
PSCL3 USEFUL LOAD PREFETCHES:          0 PREFETCH ISSUED TO LOWER LEVEL:          0  ACCURACY: -nan
PSCL3 TIMELY PREFETCHES:          0 LATE PREFETCHES: 0 DROPPED PREFETCHES: 0
PSCL3 COMMIT LATE PREFETCHES: 0 NORMAL LATE: 0 MISSED OPPORTUNITY: 0 UNCOVERED: 0
PSCL3 PREFETCHES SAME FILL-ORIGIN LEVEL: 0 DIFFERENT FILL-ORIGIN LEVEL: 0

PSCL2 SPEC fills:          0  NON-SPEC fills:          0
PSCL2 Test counter :          0
PSCL2 Leapfrog:          0
PSCL2 MSHR merge:          0
PSCL2 TOTAL     ACCESS:          0  HIT:          0  MISS:          0  HIT %:       -nan  MISS %:       -nan   MPKI: 0
PSCL2 PREFETCH  REQUESTED:          0  ISSUED:          0  USEFUL:          0  USELESS:          0
PSCL2 USEFUL LOAD PREFETCHES:          0 PREFETCH ISSUED TO LOWER LEVEL:          0  ACCURACY: -nan
PSCL2 TIMELY PREFETCHES:          0 LATE PREFETCHES: 0 DROPPED PREFETCHES: 0
PSCL2 COMMIT LATE PREFETCHES: 0 NORMAL LATE: 0 MISSED OPPORTUNITY: 0 UNCOVERED: 0
PSCL2 PREFETCHES SAME FILL-ORIGIN LEVEL: 0 DIFFERENT FILL-ORIGIN LEVEL: 0

LLC SPEC fills:          0  NON-SPEC fills:     112173
LLC Test counter :          0
LLC Leapfrog:          0
LLC MSHR merge:          0
LLC TOTAL     ACCESS:   22400068  HIT:    7857531  MISS:   14542537  HIT %:    35.0782  MISS %:    64.9218   MPKI: 72.7127
LLC LOAD      TOTAL       ACCESS:    1544693  HIT:      65364  MISS:    1479329  HIT %:    4.23152  MISS %:    95.7685   MPKI: 7.39665
LLC LOAD      NON_SPEC    ACCESS:     115463  HIT:       3284  MISS:     112179  HIT %:     2.8442  MISS %:    97.1558   MPKI: 0.560895
LLC LOAD      SPEC        ACCESS:    1429230  HIT:      62080  MISS:    1367150  HIT %:     4.3436  MISS %:    95.6564   MPKI: 6.83575
LLC RFO       NON_SPEC    ACCESS:     394738  HIT:       1247  MISS:     393491  HIT %:   0.315906  MISS %:    99.6841   MPKI: 1.96745
LLC PREFETCH  NON_SPEC    ACCESS:   11320740  HIT:      37734  MISS:   11283006  HIT %:   0.333317  MISS %:    99.6667   MPKI: 56.415
LLC WRITEBACK NON_SPEC    ACCESS:     431278  HIT:     430296  MISS:        982  HIT %:    99.7723  MISS %:   0.227695   MPKI: 0.00491
LLC CLEAN_EVICTION NON_SPEC    ACCESS:    8521620  HIT:    7232597  MISS:    1289023  HIT %:    84.8735  MISS %:    15.1265   MPKI: 6.44512
LLC COMMIT LOAD NON_SPEC    ACCESS:     147384  HIT:      88276  MISS:      59108  HIT %:    59.8952  MISS %:    40.1048   MPKI: 0.29554
LLC LOAD TRANSLATION NON_SPEC    ACCESS:      39615  HIT:       2017  MISS:      37598  HIT %:    5.09151  MISS %:    94.9085   MPKI: 0.18799
LLC PREFETCH  REQUESTED:          0  ISSUED:          0  USEFUL:     147206  USELESS:   11137828
LLC USEFUL LOAD PREFETCHES:     147206 PREFETCH ISSUED TO LOWER LEVEL:   11283005  ACCURACY: 1.30467
LLC TIMELY PREFETCHES:     147206 LATE PREFETCHES: 0 DROPPED PREFETCHES: 0
LLC COMMIT LATE PREFETCHES: 0 NORMAL LATE: 0 MISSED OPPORTUNITY: 0 UNCOVERED: 1479329
LLC PREFETCHES SAME FILL-ORIGIN LEVEL: 0 DIFFERENT FILL-ORIGIN LEVEL: 0
LLC AVERAGE MISS LATENCY: 356.508 cycles
LLC AVERAGE MISS LATENCY LOAD: 316.429 cycles
LLC AVERAGE MISS LATENCY PREFETCH: 404.906 cycles
LLC AVERAGE MSHR OCCUPANCY: 7.53037
LLC MSHR FULL: 0
LLC RQ	ACCESS:    2126430	FORWARD:          0	MERGED:          0	TO_CACHE:    2126430
LLC WQ	ACCESS:    8952898	FORWARD:          2	MERGED:          0	TO_CACHE:    8952898
LLC PQ	ACCESS:   11320741	FORWARD:          0	MERGED:          0	TO_CACHE:   11320739

LLC Dense regions hint to LLC: 0

RAW hits: 2406226
Loads Generated: 69218458
Loads sent to L1D: 66812232
Stores Generated: 46248414
Stores sent to L1D: 46248418
Major fault: 0 Minor fault: 63874
Allocated PAGES: 63874
Total Load insts: 83610198
Total Non-spec loads: 10345309
Percentage of speculative loads: 87.6267

LeapFrogging counter: 6285466
Commit hits: 29133257 miss: 28850570
Commit hit %: 50.2438 miss %: 49.7562
Commits not translated: 0
Loads retired: 10459511
Stores retired: 46248418
Cache fills: 10459522
L1D response latency: 101.064 cycles
Load retirement latency: 306.772 cycles
OOO test counter: 0
Discarded buffer inserts: 29133257 hits: 152956 hit %: 0.525022
Filter prediction accuracy: -nan
[Bingo] PHT Access: 530438
[Bingo] PHT Hit PC+Addr: 17657
[Bingo] PHT Hit PC+Offs: 511483
[Bingo] PHT Miss: 1298
[Bingo] Prefetch PC+Addr: 0
[Bingo] Prefetch PC+Offs: 0
[Bingo] Useful PC+Addr: 0
[Bingo] Useful PC+Offs: 0
[Bingo] Useless PC+Addr: 0
[Bingo] Useless PC+Offs: 0
[Bingo] L1 Prefetch per Region: 0
[Bingo] L2 Prefetch per Region: 23.9242
[Bingo] L3 Prefetch per Region: 0
[Bingo] No Prefetch per Region: 8.07583
[Bingo] Number of Voters Mean: 15.9644
[Bingo] Number of Voters SD: 8.33277
PHT read accesses: 8323616
PHT write accesses: 522092
AT read accesses: 9948277
AT write accesses: 10444959
FT read accesses: 1586970
FT write accesses: 530438
PS read accesses: 2693997
PS write accesses: 529140
PHT tag read accesses: 24791917
PHT tag write accesses: 539749
AT tag read accesses: 403849243
AT tag write accesses: 10470369
FT tag read accesses: 246312049
FT tag write accesses: 1589143
PS tag read accesses: 187963606
PS tag write accesses: 3222724

DRAM Statistics
 CHANNEL 0
 RQ ROW_BUFFER_HIT:    7224238  ROW_BUFFER_MISS:    6028282
 DBUS_CONGESTED:       3695
 WQ ROW_BUFFER_HIT:    2184309  ROW_BUFFER_MISS:    6753059  FULL:     337668

 AVG_CONGESTED_CYCLE: 5
 All warmup complete: 2
Channel 0 Bank busy for read cycles: 0
Channel 0 Bank busy for write cycles: 0
Channel 0
Rank 0
0banks busy for read cycles: 100754190
0banks busy for write cycles: 173671
1banks busy for read cycles: 52685748
1banks busy for write cycles: 20106300
2banks busy for read cycles: 12064931
2banks busy for write cycles: 8419359
3banks busy for read cycles: 7529823
3banks busy for write cycles: 6282214
4banks busy for read cycles: 6428687
4banks busy for write cycles: 6031150
5banks busy for read cycles: 7901820
5banks busy for write cycles: 6318848
6banks busy for read cycles: 11182080
6banks busy for write cycles: 7449604
7banks busy for read cycles: 23821991
7banks busy for write cycles: 19439679
8banks busy for read cycles: 116426954
8banks busy for write cycles: 146753890

CPU 0 Branch Prediction Accuracy: 99.1418% MPKI: 1.10599 Average ROB Occupancy at Mispredict: 170.436
Branch types
NOT_BRANCH: 174224526 87.1123%
BRANCH_DIRECT_JUMP: 2120382 1.06019%
BRANCH_INDIRECT: 0 0%
BRANCH_CONDITIONAL: 23654492 11.8272%
BRANCH_DIRECT_CALL: 241 0.0001205%
BRANCH_INDIRECT_CALL: 0 0%
BRANCH_RETURN: 240 0.00012%
BRANCH_OTHER: 0 0%

DRAM PAGES: 1048576
Allocated PAGES: 63874
