
*** ChampSim Multicore Out-of-Order Simulator ***

Warmup Instructions: 50000000
Simulation Instructions: 200000000
Number of CPUs: 1
LLC sets: 2048
LLC ways: 16
L0D sets: 16
L0D ways: 2
ROB size: 352
LQ size: 128
SQ size: 72
Secure Berti: OFF
Berti: OFF
Berti Fill: OFF
On commit prefetching: OFF
Hit-based filter: OFF
Time-guarding: ON
Free-slotting: ON
Leap-frogging: ON
Train prefetcher on L0D bypass: OFF
No translation penalty for prefetchers: OFF
Prefetch to L0D only: OFF
Prefetch to L1D only: OFF
Clean evictions: ON
Commit loads: ON
Commit write: ON
Fill commit loads to L2C, LLC: ON
DRAM IO FREQUENCY: 6400
ROB SIZE: 352
Off-chip DRAM Size: 4096 MB Channels: 1 Width: 64-bit Data Rate: 6400 MT/s
CPU 0 runs /home/sumon/secure_berti/GhostMinion/../../traces/spec/605.mcf_s-1152B.champsimtrace.xz
.xz
BTB has LRU replacement policy
ITLB has LRU replacement policy
DTLB has LRU replacement policy
STLB has LRU replacement policy
L1I has LRU replacement policy
L0D has LRU replacement policy
L1D has LRU replacement policy
Bingo PHT WAYS: 16 and PHT_SIZE: 16384
L2C has LRU replacement policy
LLC has LRU replacement policy
Heartbeat CPU 0 instructions: 10000001 cycles: 5577912 heartbeat IPC: 1.79279 cumulative IPC: 1.79279 (Simulation time: 0 hr 2 min 3 sec) 
Heartbeat CPU 0 instructions: 20000000 cycles: 11111445 heartbeat IPC: 1.80716 cumulative IPC: 1.79995 (Simulation time: 0 hr 4 min 30 sec) 
Heartbeat CPU 0 instructions: 30000000 cycles: 16667810 heartbeat IPC: 1.79974 cumulative IPC: 1.79988 (Simulation time: 0 hr 7 min 6 sec) 
Heartbeat CPU 0 instructions: 40000001 cycles: 22241976 heartbeat IPC: 1.79399 cumulative IPC: 1.7984 (Simulation time: 0 hr 9 min 44 sec) 
Heartbeat CPU 0 instructions: 50000001 cycles: 27802359 heartbeat IPC: 1.79844 cumulative IPC: 1.79841 (Simulation time: 0 hr 12 min 24 sec) 

Warmup complete CPU 0 instructions: 50000001 cycles: 27802359 (Simulation time: 0 hr 12 min 24 sec) 

Heartbeat CPU 0 instructions: 60000001 cycles: 61864052 heartbeat IPC: 0.293585 cumulative IPC: 0.293585 (Simulation time: 0 hr 15 min 31 sec) 
Heartbeat CPU 0 instructions: 70000001 cycles: 96279890 heartbeat IPC: 0.290564 cumulative IPC: 0.292067 (Simulation time: 0 hr 18 min 42 sec) 
Heartbeat CPU 0 instructions: 80000001 cycles: 130281796 heartbeat IPC: 0.294101 cumulative IPC: 0.292742 (Simulation time: 0 hr 21 min 48 sec) 
Heartbeat CPU 0 instructions: 90000003 cycles: 164635548 heartbeat IPC: 0.291089 cumulative IPC: 0.292327 (Simulation time: 0 hr 24 min 53 sec) 
Heartbeat CPU 0 instructions: 100000001 cycles: 199173517 heartbeat IPC: 0.289536 cumulative IPC: 0.291764 (Simulation time: 0 hr 27 min 55 sec) 
Heartbeat CPU 0 instructions: 110000000 cycles: 233639877 heartbeat IPC: 0.290138 cumulative IPC: 0.291492 (Simulation time: 0 hr 30 min 50 sec) 
Heartbeat CPU 0 instructions: 120000002 cycles: 268268450 heartbeat IPC: 0.288779 cumulative IPC: 0.291101 (Simulation time: 0 hr 33 min 42 sec) 
Heartbeat CPU 0 instructions: 130000002 cycles: 303396612 heartbeat IPC: 0.284672 cumulative IPC: 0.290282 (Simulation time: 0 hr 36 min 29 sec) 
Heartbeat CPU 0 instructions: 140000003 cycles: 339079543 heartbeat IPC: 0.280246 cumulative IPC: 0.289131 (Simulation time: 0 hr 39 min 18 sec) 
Heartbeat CPU 0 instructions: 150000001 cycles: 375239008 heartbeat IPC: 0.276553 cumulative IPC: 0.287822 (Simulation time: 0 hr 42 min 20 sec) 
Heartbeat CPU 0 instructions: 160000000 cycles: 412008749 heartbeat IPC: 0.271963 cumulative IPC: 0.286304 (Simulation time: 0 hr 45 min 34 sec) 
Heartbeat CPU 0 instructions: 170000001 cycles: 450030809 heartbeat IPC: 0.263005 cumulative IPC: 0.284206 (Simulation time: 0 hr 48 min 58 sec) 
Heartbeat CPU 0 instructions: 180000000 cycles: 488186857 heartbeat IPC: 0.262082 cumulative IPC: 0.282373 (Simulation time: 0 hr 52 min 31 sec) 
Heartbeat CPU 0 instructions: 190000002 cycles: 526737541 heartbeat IPC: 0.259399 cumulative IPC: 0.280598 (Simulation time: 0 hr 56 min 3 sec) 
Heartbeat CPU 0 instructions: 200000001 cycles: 565587596 heartbeat IPC: 0.2574 cumulative IPC: 0.278922 (Simulation time: 0 hr 59 min 34 sec) 
Heartbeat CPU 0 instructions: 210000002 cycles: 604261834 heartbeat IPC: 0.25857 cumulative IPC: 0.277556 (Simulation time: 1 hr 2 min 59 sec) 
Heartbeat CPU 0 instructions: 220000000 cycles: 641999991 heartbeat IPC: 0.264984 cumulative IPC: 0.276784 (Simulation time: 1 hr 6 min 16 sec) 
Heartbeat CPU 0 instructions: 230000002 cycles: 679771616 heartbeat IPC: 0.264749 cumulative IPC: 0.276087 (Simulation time: 1 hr 9 min 34 sec) 
Heartbeat CPU 0 instructions: 240000000 cycles: 720480560 heartbeat IPC: 0.245646 cumulative IPC: 0.274298 (Simulation time: 1 hr 12 min 48 sec) 
Heartbeat CPU 0 instructions: 250000001 cycles: 758859683 heartbeat IPC: 0.260558 cumulative IPC: 0.273576 (Simulation time: 1 hr 15 min 50 sec) 
Finished CPU 0 instructions: 200000000 cycles: 731057324 cumulative IPC: 0.273576 (Simulation time: 1 hr 15 min 50 sec) 
 Instruction ID: 250000117

ChampSim completed all CPUs

Region of Interest Statistics

CPU 0 cumulative IPC: 0.273576 instructions: 200000000 cycles: 731057324
ITLB SPEC fills:          0  NON-SPEC fills:          0
ITLB Test counter :          0
ITLB Leapfrog:          0
ITLB MSHR merge:          0
ITLB TOTAL     ACCESS:   34629281  HIT:   34629281  MISS:          0  HIT %:        100  MISS %:          0   MPKI: 0
ITLB LOAD TRANSLATION NON_SPEC    ACCESS:   34629281  HIT:   34629281  MISS:          0  HIT %:        100  MISS %:          0   MPKI: 0
ITLB PREFETCH  REQUESTED:          0  ISSUED:          0  USEFUL:          0  USELESS:          0
ITLB USEFUL LOAD PREFETCHES:          0 PREFETCH ISSUED TO LOWER LEVEL:          0  ACCURACY: -nan
ITLB TIMELY PREFETCHES:          0 LATE PREFETCHES: 0 DROPPED PREFETCHES: 0
ITLB COMMIT LATE PREFETCHES: 0 NORMAL LATE: 0 MISSED OPPORTUNITY: 0 UNCOVERED: 0
ITLB PREFETCHES SAME FILL-ORIGIN LEVEL: 0 DIFFERENT FILL-ORIGIN LEVEL: 0
ITLB AVERAGE MISS LATENCY: -nan cycles
ITLB AVERAGE MISS LATENCY LOAD: -nan cycles
ITLB AVERAGE MISS LATENCY PREFETCH: -nan cycles
ITLB AVERAGE MSHR OCCUPANCY: 0
ITLB MSHR FULL: 0
ITLB RQ	ACCESS:   36091511	FORWARD:          0	MERGED:    1462231	TO_CACHE:   34629280

DTLB SPEC fills:          0  NON-SPEC fills:          0
DTLB Test counter :          0
DTLB Leapfrog:          0
DTLB MSHR merge:          0
DTLB TOTAL     ACCESS:   59634612  HIT:   52326543  MISS:    7308069  HIT %:    87.7453  MISS %:    12.2547   MPKI: 36.5403
DTLB LOAD TRANSLATION NON_SPEC    ACCESS:   59634612  HIT:   52326543  MISS:    7308069  HIT %:    87.7453  MISS %:    12.2547   MPKI: 36.5403
DTLB PREFETCH  REQUESTED:          0  ISSUED:          0  USEFUL:          0  USELESS:          0
DTLB USEFUL LOAD PREFETCHES:          0 PREFETCH ISSUED TO LOWER LEVEL:          0  ACCURACY: -nan
DTLB TIMELY PREFETCHES:          0 LATE PREFETCHES: 0 DROPPED PREFETCHES: 0
DTLB COMMIT LATE PREFETCHES: 0 NORMAL LATE: 0 MISSED OPPORTUNITY: 0 UNCOVERED: 0
DTLB PREFETCHES SAME FILL-ORIGIN LEVEL: 0 DIFFERENT FILL-ORIGIN LEVEL: 0
DTLB AVERAGE MISS LATENCY: 11.5463 cycles
DTLB AVERAGE MISS LATENCY LOAD: -nan cycles
DTLB AVERAGE MISS LATENCY PREFETCH: -nan cycles
DTLB AVERAGE MSHR OCCUPANCY: 0.118608
DTLB MSHR FULL: 3.32556e-08
DTLB RQ	ACCESS:   72785882	FORWARD:          0	MERGED:   12645659	TO_CACHE:   60140223

STLB SPEC fills:          0  NON-SPEC fills:          0
STLB Test counter :          0
STLB Leapfrog:          0
STLB MSHR merge:          0
STLB TOTAL     ACCESS:    7308069  HIT:    7208358  MISS:      99711  HIT %:    98.6356  MISS %:     1.3644   MPKI: 0.498555
STLB LOAD TRANSLATION NON_SPEC    ACCESS:    7308069  HIT:    7208358  MISS:      99711  HIT %:    98.6356  MISS %:     1.3644   MPKI: 0.498555
STLB PREFETCH  REQUESTED:          0  ISSUED:          0  USEFUL:          0  USELESS:          0
STLB USEFUL LOAD PREFETCHES:          0 PREFETCH ISSUED TO LOWER LEVEL:          0  ACCURACY: -nan
STLB TIMELY PREFETCHES:          0 LATE PREFETCHES: 0 DROPPED PREFETCHES: 0
STLB COMMIT LATE PREFETCHES: 0 NORMAL LATE: 0 MISSED OPPORTUNITY: 0 UNCOVERED: 0
STLB PREFETCHES SAME FILL-ORIGIN LEVEL: 0 DIFFERENT FILL-ORIGIN LEVEL: 0
STLB AVERAGE MISS LATENCY: 176.969 cycles
STLB AVERAGE MISS LATENCY LOAD: -nan cycles
STLB AVERAGE MISS LATENCY PREFETCH: -nan cycles
STLB AVERAGE MSHR OCCUPANCY: 0.0285794
STLB MSHR FULL: 0
STLB RQ	ACCESS:    7308069	FORWARD:          0	MERGED:          0	TO_CACHE:    7308069

STLB Hit, L1D data hit: 0
STLB Hit, L2C data hit: 0
STLB Hit, LLC data hit: 0
STLB Hit, LLC data miss: 0
STLB STLB hints to L2: 0
L0D SPEC fills:   34430621  NON-SPEC fills:          0
L0D TimeGuard Request with older TS:     473967 Restricted eviction:     276132 read:     226645
L0D Test counter :          0
L0D Leapfrog:          0
L0D MSHR merge:    2365747
L0D TOTAL     ACCESS:   52617201  HIT:    3260147  MISS:   49357054  HIT %:    6.19597  MISS %:     93.804   MPKI: 246.785
L0D LOAD      TOTAL       ACCESS:   52617201  HIT:    3260147  MISS:   49357054  HIT %:    6.19597  MISS %:     93.804   MPKI: 246.785
L0D LOAD      NON_SPEC    ACCESS:   15222643  HIT:     572337  MISS:   14650306  HIT %:    3.75977  MISS %:    96.2402   MPKI: 73.2515
L0D LOAD      SPEC        ACCESS:   37394558  HIT:    2687810  MISS:   34706748  HIT %:     7.1877  MISS %:    92.8123   MPKI: 173.534
L0D PREFETCH  REQUESTED:          0  ISSUED:          0  USEFUL:          0  USELESS:          0
L0D USEFUL LOAD PREFETCHES:          0 PREFETCH ISSUED TO LOWER LEVEL:          0  ACCURACY: -nan
L0D TIMELY PREFETCHES:          0 LATE PREFETCHES: 0 DROPPED PREFETCHES: 0
L0D COMMIT LATE PREFETCHES: 0 NORMAL LATE: 0 MISSED OPPORTUNITY: 0 UNCOVERED: 49357054
L0D PREFETCHES SAME FILL-ORIGIN LEVEL: 0 DIFFERENT FILL-ORIGIN LEVEL: 0
L0D AVERAGE MISS LATENCY: 19.575 cycles
L0D AVERAGE MISS LATENCY LOAD: 19.575 cycles
L0D AVERAGE MISS LATENCY PREFETCH: -nan cycles
L0D AVERAGE MSHR OCCUPANCY: 1.45601
L0D MSHR FULL: 0.0617279
L0D RQ	ACCESS:   68384195	FORWARD:          0	MERGED:   13401246	TO_CACHE:   54982949
L0D WQ	ACCESS:   17802933	FORWARD:          0	MERGED:          0	TO_CACHE:   17802933

L1D SPEC fills:          0  NON-SPEC fills:    3354991
L1D Test counter :          0
L1D Leapfrog:          0
L1D MSHR merge:       5120
L1D TOTAL     ACCESS:  111337979  HIT:   87350466  MISS:   23987513  HIT %:    78.4552  MISS %:    21.5448   MPKI: 119.938
L1D LOAD      TOTAL       ACCESS:   49351934  HIT:   35998589  MISS:   13353345  HIT %:    72.9426  MISS %:    27.0574   MPKI: 66.7667
L1D LOAD      NON_SPEC    ACCESS:   14649245  HIT:   11294254  MISS:    3354991  HIT %:    77.0979  MISS %:    22.9021   MPKI: 16.775
L1D LOAD      SPEC        ACCESS:   34702689  HIT:   24704335  MISS:    9998354  HIT %:    71.1885  MISS %:    28.8115   MPKI: 49.9918
L1D RFO       NON_SPEC    ACCESS:   15388784  HIT:   14779976  MISS:     608808  HIT %:    96.0438  MISS %:    3.95618   MPKI: 3.04404
L1D COMMIT LOAD NON_SPEC    ACCESS:   12473357  HIT:   12001042  MISS:     472315  HIT %:    96.2134  MISS %:    3.78659   MPKI: 2.36158
L1D COMMIT WRITE NON_SPEC    ACCESS:   34123904  HIT:   24570859  MISS:    9553045  HIT %:    72.0048  MISS %:    27.9952   MPKI: 47.7652
L1D PREFETCH  REQUESTED:          0  ISSUED:          0  USEFUL:          0  USELESS:          0
L1D USEFUL LOAD PREFETCHES:          0 PREFETCH ISSUED TO LOWER LEVEL:          0  ACCURACY: -nan
L1D TIMELY PREFETCHES:          0 LATE PREFETCHES: 0 DROPPED PREFETCHES: 0
L1D COMMIT LATE PREFETCHES: 0 NORMAL LATE: 0 MISSED OPPORTUNITY: 0 UNCOVERED: 13353345
L1D PREFETCHES SAME FILL-ORIGIN LEVEL: 0 DIFFERENT FILL-ORIGIN LEVEL: 0
L1D AVERAGE MISS LATENCY: 30.9746 cycles
L1D AVERAGE MISS LATENCY LOAD: 52.6413 cycles
L1D AVERAGE MISS LATENCY PREFETCH: -nan cycles
L1D AVERAGE MSHR OCCUPANCY: 0.621581
L1D MSHR FULL: 1.13183e-07
L1D RQ	ACCESS:   68295910	FORWARD:          0	MERGED:    5982452	TO_CACHE:   61846730
L1D WQ	ACCESS:   51932505	FORWARD:     466728	MERGED:    1331368	TO_CACHE:   50601137

L1D UNIQUE REGIONS ACCESSED: 0
L1D REGIONS CONFLICTS: 0
L1D Cross Page Prefetch Requests: 0
L1D Same Page Prefetch Requests: 0
L1D ROI Sum of L1D PQ occupancy: 0
L1D PREFETCHES PUSHED FROM L2C: 0
L1I SPEC fills:          0  NON-SPEC fills:          0
L1I Test counter :          0
L1I Leapfrog:          0
L1I MSHR merge:          0
L1I TOTAL     ACCESS:   36091512  HIT:   36091510  MISS:          2  HIT %:        100  MISS %: 5.54147e-06   MPKI: 1e-05
L1I LOAD      TOTAL       ACCESS:   36091512  HIT:   36091510  MISS:          2  HIT %:        100  MISS %: 5.54147e-06   MPKI: 1e-05
L1I LOAD      NON_SPEC    ACCESS:   36091512  HIT:   36091510  MISS:          2  HIT %:        100  MISS %: 5.54147e-06   MPKI: 1e-05
L1I PREFETCH  REQUESTED:          0  ISSUED:          0  USEFUL:          0  USELESS:          0
L1I USEFUL LOAD PREFETCHES:          0 PREFETCH ISSUED TO LOWER LEVEL:          0  ACCURACY: -nan
L1I TIMELY PREFETCHES:          0 LATE PREFETCHES: 0 DROPPED PREFETCHES: 0
L1I COMMIT LATE PREFETCHES: 0 NORMAL LATE: 0 MISSED OPPORTUNITY: 0 UNCOVERED: 2
L1I PREFETCHES SAME FILL-ORIGIN LEVEL: 0 DIFFERENT FILL-ORIGIN LEVEL: 0
L1I AVERAGE MISS LATENCY: 214 cycles
L1I AVERAGE MISS LATENCY LOAD: 214 cycles
L1I AVERAGE MISS LATENCY PREFETCH: -nan cycles
L1I AVERAGE MSHR OCCUPANCY: 2.77073e-08
L1I MSHR FULL: 0
L1I RQ	ACCESS:   55261993	FORWARD:          0	MERGED:   19170482	TO_CACHE:   36091511

BTB SPEC fills:          0  NON-SPEC fills:          0
BTB Test counter :          0
BTB Leapfrog:          0
BTB MSHR merge:          0
BTB TOTAL     ACCESS:   49743916  HIT:   48131262  MISS:    1612654  HIT %:    96.7581  MISS %:    3.24191   MPKI: 8.06327
BTB BRANCH_DIRECT_JUMP	ACCESS:    5836928  HIT:    5836891  MISS:         37
BTB BRANCH_INDIRECT	ACCESS:          0  HIT:          0  MISS:          0
BTB BRANCH_CONDITIONAL	ACCESS:   36112465  HIT:   36112386  MISS:         79
BTB BRANCH_DIRECT_CALL	ACCESS:    3647058  HIT:    3647040  MISS:         18
BTB BRANCH_INDIRECT_CALL	ACCESS:     250202  HIT:     250194  MISS:          8
BTB BRANCH_RETURN	ACCESS:    3897263  HIT:    2284751  MISS:    1612512
BTB BRANCH_OTHER ACCESS:          0  HIT:          0  MISS:          0

L2C SPEC fills:          0  NON-SPEC fills:    1959580
L2C Test counter :          0
L2C Leapfrog:          0
L2C MSHR merge:     328628
L2C TOTAL     ACCESS:   34524552  HIT:   14973239  MISS:   19551313  HIT %:    43.3698  MISS %:    56.6302   MPKI: 97.7566
L2C LOAD      TOTAL       ACCESS:   13353090  HIT:    6511161  MISS:    6841929  HIT %:    48.7615  MISS %:    51.2385   MPKI: 34.2096
L2C LOAD      NON_SPEC    ACCESS:    3354972  HIT:    1395390  MISS:    1959582  HIT %:    41.5917  MISS %:    58.4083   MPKI: 9.79791
L2C LOAD      SPEC        ACCESS:    9998118  HIT:    5115771  MISS:    4882347  HIT %:    51.1673  MISS %:    48.8327   MPKI: 24.4117
L2C RFO       NON_SPEC    ACCESS:     608797  HIT:     272173  MISS:     336624  HIT %:    44.7067  MISS %:    55.2933   MPKI: 1.68312
L2C PREFETCH  NON_SPEC    ACCESS:    8757618  HIT:    1363850  MISS:    7393768  HIT %:    15.5733  MISS %:    84.4267   MPKI: 36.9688
L2C WRITEBACK NON_SPEC    ACCESS:     669837  HIT:     669398  MISS:        439  HIT %:    99.9345  MISS %:  0.0655383   MPKI: 0.002195
L2C CLEAN_EVICTION NON_SPEC    ACCESS:   10164904  HIT:    5472877  MISS:    4692027  HIT %:    53.8409  MISS %:    46.1591   MPKI: 23.4601
L2C COMMIT LOAD NON_SPEC    ACCESS:     472135  HIT:     223655  MISS:     248480  HIT %:     47.371  MISS %:     52.629   MPKI: 1.2424
L2C LOAD TRANSLATION NON_SPEC    ACCESS:     498171  HIT:     460125  MISS:      38046  HIT %:    92.3629  MISS %:    7.63714   MPKI: 0.19023
L2C PREFETCH  REQUESTED:    9418375  ISSUED:    9418375  USEFUL:    4576589  USELESS:    2817255
L2C USEFUL LOAD PREFETCHES:    4576589 PREFETCH ISSUED TO LOWER LEVEL:    7722398  ACCURACY: 59.2638
L2C TIMELY PREFETCHES:    4576589 LATE PREFETCHES: 328630 DROPPED PREFETCHES: 0
L2C COMMIT LATE PREFETCHES: 0 NORMAL LATE: 328630 MISSED OPPORTUNITY: 0 UNCOVERED: 6513299
L2C PREFETCHES SAME FILL-ORIGIN LEVEL: 7722398 DIFFERENT FILL-ORIGIN LEVEL: 0
L2C AVERAGE MISS LATENCY: 101.712 cycles
L2C AVERAGE MISS LATENCY LOAD: 79.4497 cycles
L2C AVERAGE MISS LATENCY PREFETCH: 191.584 cycles
L2C AVERAGE MSHR OCCUPANCY: 4.66146
L2C MSHR FULL: 0.00328361
L2C RQ	ACCESS:   14932641	FORWARD:          0	MERGED:          0	TO_CACHE:   14932193
L2C WQ	ACCESS:   10834751	FORWARD:        504	MERGED:         10	TO_CACHE:   10834741
L2C PQ	ACCESS:    9418375	FORWARD:          0	MERGED:          3	TO_CACHE:    9418316

L2C Instructions Evicting Data 2
L2C Translations Evicting Data 37973
L2C Data Evicting Data 9913352
L2C Instructions Evicting Instructions 0
L2C Translations Evicting Instructions 0
L2C Data Evicting Instructions 2
L2C Instructions Evicting Translations 0
L2C Translations Evicting Translations 73
L2C Data Evicting Translations 25098
L2C Dense regions hint from L2: 0
PSCL5 SPEC fills:          0  NON-SPEC fills:          0
PSCL5 Test counter :          0
PSCL5 Leapfrog:          0
PSCL5 MSHR merge:          0
PSCL5 TOTAL     ACCESS:          0  HIT:          0  MISS:          0  HIT %:       -nan  MISS %:       -nan   MPKI: 0
PSCL5 PREFETCH  REQUESTED:          0  ISSUED:          0  USEFUL:          0  USELESS:          0
PSCL5 USEFUL LOAD PREFETCHES:          0 PREFETCH ISSUED TO LOWER LEVEL:          0  ACCURACY: -nan
PSCL5 TIMELY PREFETCHES:          0 LATE PREFETCHES: 0 DROPPED PREFETCHES: 0
PSCL5 COMMIT LATE PREFETCHES: 0 NORMAL LATE: 0 MISSED OPPORTUNITY: 0 UNCOVERED: 0
PSCL5 PREFETCHES SAME FILL-ORIGIN LEVEL: 0 DIFFERENT FILL-ORIGIN LEVEL: 0

PSCL4 SPEC fills:          0  NON-SPEC fills:          0
PSCL4 Test counter :          0
PSCL4 Leapfrog:          0
PSCL4 MSHR merge:          0
PSCL4 TOTAL     ACCESS:          0  HIT:          0  MISS:          0  HIT %:       -nan  MISS %:       -nan   MPKI: 0
PSCL4 PREFETCH  REQUESTED:          0  ISSUED:          0  USEFUL:          0  USELESS:          0
PSCL4 USEFUL LOAD PREFETCHES:          0 PREFETCH ISSUED TO LOWER LEVEL:          0  ACCURACY: -nan
PSCL4 TIMELY PREFETCHES:          0 LATE PREFETCHES: 0 DROPPED PREFETCHES: 0
PSCL4 COMMIT LATE PREFETCHES: 0 NORMAL LATE: 0 MISSED OPPORTUNITY: 0 UNCOVERED: 0
PSCL4 PREFETCHES SAME FILL-ORIGIN LEVEL: 0 DIFFERENT FILL-ORIGIN LEVEL: 0

PSCL3 SPEC fills:          0  NON-SPEC fills:          0
PSCL3 Test counter :          0
PSCL3 Leapfrog:          0
PSCL3 MSHR merge:          0
PSCL3 TOTAL     ACCESS:          0  HIT:          0  MISS:          0  HIT %:       -nan  MISS %:       -nan   MPKI: 0
PSCL3 PREFETCH  REQUESTED:          0  ISSUED:          0  USEFUL:          0  USELESS:          0
PSCL3 USEFUL LOAD PREFETCHES:          0 PREFETCH ISSUED TO LOWER LEVEL:          0  ACCURACY: -nan
PSCL3 TIMELY PREFETCHES:          0 LATE PREFETCHES: 0 DROPPED PREFETCHES: 0
PSCL3 COMMIT LATE PREFETCHES: 0 NORMAL LATE: 0 MISSED OPPORTUNITY: 0 UNCOVERED: 0
PSCL3 PREFETCHES SAME FILL-ORIGIN LEVEL: 0 DIFFERENT FILL-ORIGIN LEVEL: 0

PSCL2 SPEC fills:          0  NON-SPEC fills:          0
PSCL2 Test counter :          0
PSCL2 Leapfrog:          0
PSCL2 MSHR merge:          0
PSCL2 TOTAL     ACCESS:          0  HIT:          0  MISS:          0  HIT %:       -nan  MISS %:       -nan   MPKI: 0
PSCL2 PREFETCH  REQUESTED:          0  ISSUED:          0  USEFUL:          0  USELESS:          0
PSCL2 USEFUL LOAD PREFETCHES:          0 PREFETCH ISSUED TO LOWER LEVEL:          0  ACCURACY: -nan
PSCL2 TIMELY PREFETCHES:          0 LATE PREFETCHES: 0 DROPPED PREFETCHES: 0
PSCL2 COMMIT LATE PREFETCHES: 0 NORMAL LATE: 0 MISSED OPPORTUNITY: 0 UNCOVERED: 0
PSCL2 PREFETCHES SAME FILL-ORIGIN LEVEL: 0 DIFFERENT FILL-ORIGIN LEVEL: 0

LLC SPEC fills:          0  NON-SPEC fills:     348394
LLC Test counter :          0
LLC Leapfrog:          0
LLC MSHR merge:          0
LLC TOTAL     ACCESS:   24231059  HIT:   16247514  MISS:    7983545  HIT %:    67.0524  MISS %:    32.9476   MPKI: 39.9177
LLC LOAD      TOTAL       ACCESS:    6513200  HIT:    4939388  MISS:    1573812  HIT %:    75.8366  MISS %:    24.1634   MPKI: 7.86906
LLC LOAD      NON_SPEC    ACCESS:    1955391  HIT:    1606995  MISS:     348396  HIT %:    82.1828  MISS %:    17.8172   MPKI: 1.74198
LLC LOAD      SPEC        ACCESS:    4557809  HIT:    3332393  MISS:    1225416  HIT %:    73.1139  MISS %:    26.8861   MPKI: 6.12708
LLC RFO       NON_SPEC    ACCESS:     336608  HIT:     330189  MISS:       6419  HIT %:     98.093  MISS %:    1.90697   MPKI: 0.032095
LLC PREFETCH  NON_SPEC    ACCESS:    7722307  HIT:    2732035  MISS:    4990272  HIT %:    35.3785  MISS %:    64.6215   MPKI: 24.9514
LLC WRITEBACK NON_SPEC    ACCESS:     378000  HIT:     374901  MISS:       3099  HIT %:    99.1802  MISS %:   0.819841   MPKI: 0.015495
LLC CLEAN_EVICTION NON_SPEC    ACCESS:    8994457  HIT:    7623163  MISS:    1371294  HIT %:     84.754  MISS %:     15.246   MPKI: 6.85647
LLC COMMIT LOAD NON_SPEC    ACCESS:     248441  HIT:     227060  MISS:      21381  HIT %:    91.3939  MISS %:    8.60607   MPKI: 0.106905
LLC LOAD TRANSLATION NON_SPEC    ACCESS:      38046  HIT:      20778  MISS:      17268  HIT %:    54.6128  MISS %:    45.3872   MPKI: 0.08634
LLC PREFETCH  REQUESTED:          0  ISSUED:          0  USEFUL:     262832  USELESS:    4727156
LLC USEFUL LOAD PREFETCHES:     262832 PREFETCH ISSUED TO LOWER LEVEL:    4990272  ACCURACY: 5.26689
LLC TIMELY PREFETCHES:     262832 LATE PREFETCHES: 0 DROPPED PREFETCHES: 0
LLC COMMIT LATE PREFETCHES: 0 NORMAL LATE: 0 MISSED OPPORTUNITY: 0 UNCOVERED: 1573812
LLC PREFETCHES SAME FILL-ORIGIN LEVEL: 0 DIFFERENT FILL-ORIGIN LEVEL: 0
LLC AVERAGE MISS LATENCY: 201.995 cycles
LLC AVERAGE MISS LATENCY LOAD: 210.696 cycles
LLC AVERAGE MISS LATENCY PREFETCH: 254.799 cycles
LLC AVERAGE MSHR OCCUPANCY: 3.87534
LLC MSHR FULL: 0
LLC RQ	ACCESS:    7136449	FORWARD:          0	MERGED:          0	TO_CACHE:    7136295
LLC WQ	ACCESS:    9372457	FORWARD:        245	MERGED:          0	TO_CACHE:    9372457
LLC PQ	ACCESS:    7722398	FORWARD:          0	MERGED:          0	TO_CACHE:    7722307

LLC Dense regions hint to LLC: 0

RAW hits: 2268786
Loads Generated: 70652983
Loads sent to L1D: 68384195
Stores Generated: 17802933
Stores sent to L1D: 17802933
Major fault: 0 Minor fault: 80635
Allocated PAGES: 80635
Total Load insts: 84737918
Total Non-spec loads: 16872569
Percentage of speculative loads: 80.0885

LeapFrogging counter: 1431911
Commit hits: 34129572 miss: 18938856
Commit hit %: 64.3124 miss %: 35.6876
Commits not translated: 0
Loads retired: 13353345
Stores retired: 17802933
Cache fills: 13353345
L1D response latency: 52.6413 cycles
Load retirement latency: 189.407 cycles
OOO test counter: 0
Discarded buffer inserts: 34129572 hits: 45096 hit %: 0.132132
Filter prediction accuracy: -nan
[Bingo] PHT Access: 6828601
[Bingo] PHT Hit PC+Addr: 846300
[Bingo] PHT Hit PC+Offs: 5974895
[Bingo] PHT Miss: 7406
[Bingo] Prefetch PC+Addr: 0
[Bingo] Prefetch PC+Offs: 0
[Bingo] Useful PC+Addr: 0
[Bingo] Useful PC+Offs: 0
[Bingo] Useless PC+Addr: 0
[Bingo] Useless PC+Offs: 0
[Bingo] L1 Prefetch per Region: 0
[Bingo] L2 Prefetch per Region: 2.39481
[Bingo] L3 Prefetch per Region: 0
[Bingo] No Prefetch per Region: 29.6052
[Bingo] Number of Voters Mean: 15.888
[Bingo] Number of Voters SD: 6.49265
PHT read accesses: 102752653
PHT write accesses: 991685
AT read accesses: 6870370
AT write accesses: 7507949
FT read accesses: 3248908
FT write accesses: 6828601
PS read accesses: 14225644
PS write accesses: 6821195
PHT tag read accesses: 127284244
PHT tag write accesses: 1837985
AT tag read accesses: 493259672
AT tag write accesses: 7862056
FT tag read accesses: 584763930
FT tag write accesses: 9077599
PS tag read accesses: 448183620
PS tag write accesses: 20993616

DRAM Statistics
 CHANNEL 0
 RQ ROW_BUFFER_HIT:    2589456  ROW_BUFFER_MISS:    4017710
 DBUS_CONGESTED:        958
 WQ ROW_BUFFER_HIT:    1294027  ROW_BUFFER_MISS:    3971893  FULL:      31919

 AVG_CONGESTED_CYCLE: 5
 All warmup complete: 2
Channel 0 Bank busy for read cycles: 0
Channel 0 Bank busy for write cycles: 0
Channel 0
Rank 0
0banks busy for read cycles: 321265397
0banks busy for write cycles: 143034
1banks busy for read cycles: 94149968
1banks busy for write cycles: 20329101
2banks busy for read cycles: 49855749
2banks busy for write cycles: 12401823
3banks busy for read cycles: 25536178
3banks busy for write cycles: 10667793
4banks busy for read cycles: 12810731
4banks busy for write cycles: 10062726
5banks busy for read cycles: 6320416
5banks busy for write cycles: 10488825
6banks busy for read cycles: 3604163
6banks busy for write cycles: 12645498
7banks busy for read cycles: 7022757
7banks busy for write cycles: 22515346
8banks busy for read cycles: 39981574
8banks busy for write cycles: 71256246

CPU 0 Branch Prediction Accuracy: 94.5902% MPKI: 13.9808 Average ROB Occupancy at Mispredict: 25.6918
Branch types
NOT_BRANCH: 148312419 74.1562%
BRANCH_DIRECT_JUMP: 5836928 2.91846%
BRANCH_INDIRECT: 0 0%
BRANCH_CONDITIONAL: 38055866 19.0279%
BRANCH_DIRECT_CALL: 3647058 1.82353%
BRANCH_INDIRECT_CALL: 250202 0.125101%
BRANCH_RETURN: 3897263 1.94863%
BRANCH_OTHER: 0 0%

DRAM PAGES: 1048576
Allocated PAGES: 80635
