
*** ChampSim Multicore Out-of-Order Simulator ***

Warmup Instructions: 50000000
Simulation Instructions: 200000000
Number of CPUs: 1
LLC sets: 2048
LLC ways: 16
L0D sets: 16
L0D ways: 2
ROB size: 352
LQ size: 128
SQ size: 72
Secure Berti: OFF
Berti: OFF
Berti Fill: OFF
On commit prefetching: OFF
Hit-based filter: OFF
Time-guarding: ON
Free-slotting: ON
Leap-frogging: ON
Train prefetcher on L0D bypass: OFF
No translation penalty for prefetchers: OFF
Prefetch to L0D only: OFF
Prefetch to L1D only: OFF
Clean evictions: ON
Commit loads: ON
Commit write: ON
Fill commit loads to L2C, LLC: ON
DRAM IO FREQUENCY: 6400
ROB SIZE: 352
Off-chip DRAM Size: 4096 MB Channels: 1 Width: 64-bit Data Rate: 6400 MT/s
CPU 0 runs /home/sumon/secure_berti/GhostMinion/../../traces/spec/619.lbm_s-3766B.champsimtrace.xz
.xz
BTB has LRU replacement policy
ITLB has LRU replacement policy
DTLB has LRU replacement policy
STLB has LRU replacement policy
L1I has LRU replacement policy
L0D has LRU replacement policy
L1D has LRU replacement policy
Bingo PHT WAYS: 16 and PHT_SIZE: 16384
L2C has LRU replacement policy
LLC has LRU replacement policy
Heartbeat CPU 0 instructions: 10000000 cycles: 2863710 heartbeat IPC: 3.49197 cumulative IPC: 3.49197 (Simulation time: 0 hr 0 min 58 sec) 
Heartbeat CPU 0 instructions: 20000002 cycles: 5730135 heartbeat IPC: 3.48867 cumulative IPC: 3.49032 (Simulation time: 0 hr 1 min 57 sec) 
Heartbeat CPU 0 instructions: 30000000 cycles: 8593715 heartbeat IPC: 3.49213 cumulative IPC: 3.49092 (Simulation time: 0 hr 3 min 0 sec) 
Heartbeat CPU 0 instructions: 40000003 cycles: 11460256 heartbeat IPC: 3.48853 cumulative IPC: 3.49032 (Simulation time: 0 hr 4 min 7 sec) 
Heartbeat CPU 0 instructions: 50000000 cycles: 14326754 heartbeat IPC: 3.48858 cumulative IPC: 3.48997 (Simulation time: 0 hr 5 min 17 sec) 

Warmup complete CPU 0 instructions: 50000004 cycles: 14326755 (Simulation time: 0 hr 5 min 17 sec) 

Heartbeat CPU 0 instructions: 60000000 cycles: 25165001 heartbeat IPC: 0.922658 cumulative IPC: 0.922658 (Simulation time: 0 hr 6 min 53 sec) 
Heartbeat CPU 0 instructions: 70000001 cycles: 36213450 heartbeat IPC: 0.905105 cumulative IPC: 0.913797 (Simulation time: 0 hr 8 min 31 sec) 
Heartbeat CPU 0 instructions: 80000001 cycles: 47016372 heartbeat IPC: 0.925675 cumulative IPC: 0.917723 (Simulation time: 0 hr 10 min 7 sec) 
Heartbeat CPU 0 instructions: 90000001 cycles: 58032907 heartbeat IPC: 0.907726 cumulative IPC: 0.915203 (Simulation time: 0 hr 11 min 45 sec) 
Heartbeat CPU 0 instructions: 100000000 cycles: 68848588 heartbeat IPC: 0.924583 cumulative IPC: 0.917064 (Simulation time: 0 hr 13 min 21 sec) 
Heartbeat CPU 0 instructions: 110000000 cycles: 80392450 heartbeat IPC: 0.866261 cumulative IPC: 0.908187 (Simulation time: 0 hr 15 min 6 sec) 
Heartbeat CPU 0 instructions: 120000003 cycles: 92303259 heartbeat IPC: 0.839574 cumulative IPC: 0.897706 (Simulation time: 0 hr 16 min 55 sec) 
Heartbeat CPU 0 instructions: 130000000 cycles: 107022020 heartbeat IPC: 0.679405 cumulative IPC: 0.863043 (Simulation time: 0 hr 19 min 12 sec) 
Heartbeat CPU 0 instructions: 140000002 cycles: 123954020 heartbeat IPC: 0.590598 cumulative IPC: 0.820964 (Simulation time: 0 hr 21 min 47 sec) 
Heartbeat CPU 0 instructions: 150000002 cycles: 144259991 heartbeat IPC: 0.492466 cumulative IPC: 0.769626 (Simulation time: 0 hr 24 min 48 sec) 
Heartbeat CPU 0 instructions: 160000003 cycles: 169621209 heartbeat IPC: 0.394303 cumulative IPC: 0.708332 (Simulation time: 0 hr 28 min 34 sec) 
Heartbeat CPU 0 instructions: 170000003 cycles: 201564462 heartbeat IPC: 0.313055 cumulative IPC: 0.640897 (Simulation time: 0 hr 32 min 55 sec) 
Heartbeat CPU 0 instructions: 180000003 cycles: 235691488 heartbeat IPC: 0.293023 cumulative IPC: 0.587266 (Simulation time: 0 hr 37 min 18 sec) 
Heartbeat CPU 0 instructions: 190000001 cycles: 271303727 heartbeat IPC: 0.280802 cumulative IPC: 0.544796 (Simulation time: 0 hr 42 min 13 sec) 
Heartbeat CPU 0 instructions: 200000000 cycles: 304243843 heartbeat IPC: 0.303581 cumulative IPC: 0.517389 (Simulation time: 0 hr 46 min 47 sec) 
Heartbeat CPU 0 instructions: 210000003 cycles: 334667328 heartbeat IPC: 0.328694 cumulative IPC: 0.499468 (Simulation time: 0 hr 50 min 52 sec) 
Heartbeat CPU 0 instructions: 220000000 cycles: 362617417 heartbeat IPC: 0.357781 cumulative IPC: 0.488098 (Simulation time: 0 hr 54 min 22 sec) 
Heartbeat CPU 0 instructions: 230000000 cycles: 389648172 heartbeat IPC: 0.369949 cumulative IPC: 0.479589 (Simulation time: 0 hr 57 min 46 sec) 
Heartbeat CPU 0 instructions: 240000002 cycles: 415428176 heartbeat IPC: 0.387898 cumulative IPC: 0.473696 (Simulation time: 1 hr 1 min 0 sec) 
Heartbeat CPU 0 instructions: 250000002 cycles: 441189543 heartbeat IPC: 0.388178 cumulative IPC: 0.468535 (Simulation time: 1 hr 4 min 14 sec) 
Finished CPU 0 instructions: 200000001 cycles: 426862789 cumulative IPC: 0.468535 (Simulation time: 1 hr 4 min 14 sec) 
 Instruction ID: 250000037

ChampSim completed all CPUs

Region of Interest Statistics

CPU 0 cumulative IPC: 0.468535 instructions: 200000001 cycles: 426862789
ITLB SPEC fills:          0  NON-SPEC fills:          0
ITLB Test counter :          0
ITLB Leapfrog:          0
ITLB MSHR merge:          0
ITLB TOTAL     ACCESS:   26536039  HIT:   26536039  MISS:          0  HIT %:        100  MISS %:          0   MPKI: 0
ITLB LOAD TRANSLATION NON_SPEC    ACCESS:   26536039  HIT:   26536039  MISS:          0  HIT %:        100  MISS %:          0   MPKI: 0
ITLB PREFETCH  REQUESTED:          0  ISSUED:          0  USEFUL:          0  USELESS:          0
ITLB USEFUL LOAD PREFETCHES:          0 PREFETCH ISSUED TO LOWER LEVEL:          0  ACCURACY: -nan
ITLB TIMELY PREFETCHES:          0 LATE PREFETCHES: 0 DROPPED PREFETCHES: 0
ITLB COMMIT LATE PREFETCHES: 0 NORMAL LATE: 0 MISSED OPPORTUNITY: 0 UNCOVERED: 0
ITLB PREFETCHES SAME FILL-ORIGIN LEVEL: 0 DIFFERENT FILL-ORIGIN LEVEL: 0
ITLB AVERAGE MISS LATENCY: -nan cycles
ITLB AVERAGE MISS LATENCY LOAD: -nan cycles
ITLB AVERAGE MISS LATENCY PREFETCH: -nan cycles
ITLB AVERAGE MSHR OCCUPANCY: 0
ITLB MSHR FULL: 0
ITLB RQ	ACCESS:   34431283	FORWARD:          0	MERGED:    7895244	TO_CACHE:   26536039

DTLB SPEC fills:          0  NON-SPEC fills:          0
DTLB Test counter :          0
DTLB Leapfrog:          0
DTLB MSHR merge:          0
DTLB TOTAL     ACCESS:   45224315  HIT:   44998602  MISS:     225713  HIT %:    99.5009  MISS %:   0.499097   MPKI: 1.12856
DTLB LOAD TRANSLATION NON_SPEC    ACCESS:   45224315  HIT:   44998602  MISS:     225713  HIT %:    99.5009  MISS %:   0.499097   MPKI: 1.12856
DTLB PREFETCH  REQUESTED:          0  ISSUED:          0  USEFUL:          0  USELESS:          0
DTLB USEFUL LOAD PREFETCHES:          0 PREFETCH ISSUED TO LOWER LEVEL:          0  ACCURACY: -nan
DTLB TIMELY PREFETCHES:          0 LATE PREFETCHES: 0 DROPPED PREFETCHES: 0
DTLB COMMIT LATE PREFETCHES: 0 NORMAL LATE: 0 MISSED OPPORTUNITY: 0 UNCOVERED: 0
DTLB PREFETCHES SAME FILL-ORIGIN LEVEL: 0 DIFFERENT FILL-ORIGIN LEVEL: 0
DTLB AVERAGE MISS LATENCY: 135.072 cycles
DTLB AVERAGE MISS LATENCY LOAD: -nan cycles
DTLB AVERAGE MISS LATENCY PREFETCH: -nan cycles
DTLB AVERAGE MSHR OCCUPANCY: 0.0859095
DTLB MSHR FULL: 0
DTLB RQ	ACCESS:   66150575	FORWARD:          0	MERGED:   20815439	TO_CACHE:   45335136

STLB SPEC fills:          0  NON-SPEC fills:          0
STLB Test counter :          0
STLB Leapfrog:          0
STLB MSHR merge:          0
STLB TOTAL     ACCESS:     225713  HIT:     103243  MISS:     122470  HIT %:    45.7408  MISS %:    54.2592   MPKI: 0.61235
STLB LOAD TRANSLATION NON_SPEC    ACCESS:     225713  HIT:     103243  MISS:     122470  HIT %:    45.7408  MISS %:    54.2592   MPKI: 0.61235
STLB PREFETCH  REQUESTED:          0  ISSUED:          0  USEFUL:          0  USELESS:          0
STLB USEFUL LOAD PREFETCHES:          0 PREFETCH ISSUED TO LOWER LEVEL:          0  ACCURACY: -nan
STLB TIMELY PREFETCHES:          0 LATE PREFETCHES: 0 DROPPED PREFETCHES: 0
STLB COMMIT LATE PREFETCHES: 0 NORMAL LATE: 0 MISSED OPPORTUNITY: 0 UNCOVERED: 0
STLB PREFETCHES SAME FILL-ORIGIN LEVEL: 0 DIFFERENT FILL-ORIGIN LEVEL: 0
STLB AVERAGE MISS LATENCY: 232.299 cycles
STLB AVERAGE MISS LATENCY LOAD: -nan cycles
STLB AVERAGE MISS LATENCY PREFETCH: -nan cycles
STLB AVERAGE MSHR OCCUPANCY: 0.154081
STLB MSHR FULL: 0
STLB RQ	ACCESS:     225713	FORWARD:          0	MERGED:          0	TO_CACHE:     225713

STLB Hit, L1D data hit: 0
STLB Hit, L2C data hit: 0
STLB Hit, LLC data hit: 0
STLB Hit, LLC data miss: 0
STLB STLB hints to L2: 0
L0D SPEC fills:   19497045  NON-SPEC fills:          0
L0D TimeGuard Request with older TS:      33757 Restricted eviction:       4898 read:     588023
L0D Test counter :          0
L0D Leapfrog:          0
L0D MSHR merge:    3362950
L0D TOTAL     ACCESS:   28223766  HIT:    6837505  MISS:   21386261  HIT %:    24.2261  MISS %:    75.7739   MPKI: 106.931
L0D LOAD      TOTAL       ACCESS:   28223766  HIT:    6837505  MISS:   21386261  HIT %:    24.2261  MISS %:    75.7739   MPKI: 106.931
L0D LOAD      NON_SPEC    ACCESS:    2903497  HIT:    1019179  MISS:    1884318  HIT %:    35.1018  MISS %:    64.8982   MPKI: 9.42159
L0D LOAD      SPEC        ACCESS:   25320269  HIT:    5818326  MISS:   19501943  HIT %:    22.9789  MISS %:    77.0211   MPKI: 97.5097
L0D PREFETCH  REQUESTED:          0  ISSUED:          0  USEFUL:          0  USELESS:          0
L0D USEFUL LOAD PREFETCHES:          0 PREFETCH ISSUED TO LOWER LEVEL:          0  ACCURACY: -nan
L0D TIMELY PREFETCHES:          0 LATE PREFETCHES: 0 DROPPED PREFETCHES: 0
L0D COMMIT LATE PREFETCHES: 0 NORMAL LATE: 0 MISSED OPPORTUNITY: 0 UNCOVERED: 21386261
L0D PREFETCHES SAME FILL-ORIGIN LEVEL: 0 DIFFERENT FILL-ORIGIN LEVEL: 0
L0D AVERAGE MISS LATENCY: 45.2391 cycles
L0D AVERAGE MISS LATENCY LOAD: 45.2391 cycles
L0D AVERAGE MISS LATENCY PREFETCH: -nan cycles
L0D AVERAGE MSHR OCCUPANCY: 1.99071
L0D MSHR FULL: 0.147121
L0D RQ	ACCESS:   48368179	FORWARD:          0	MERGED:   16781464	TO_CACHE:   31586715
L0D WQ	ACCESS:   34563860	FORWARD:          0	MERGED:          0	TO_CACHE:   34563860

L1D SPEC fills:          0  NON-SPEC fills:     258560
L1D Test counter :          0
L1D Leapfrog:          0
L1D MSHR merge:      17355
L1D TOTAL     ACCESS:   85478322  HIT:   70732543  MISS:   14745779  HIT %:    82.7491  MISS %:    17.2509   MPKI: 73.7289
L1D LOAD      TOTAL       ACCESS:   21368906  HIT:   19387237  MISS:    1981669  HIT %:    90.7264  MISS %:    9.27361   MPKI: 9.90834
L1D LOAD      NON_SPEC    ACCESS:    1876992  HIT:    1618432  MISS:     258560  HIT %:    86.2248  MISS %:    13.7752   MPKI: 1.2928
L1D LOAD      SPEC        ACCESS:   19491914  HIT:   17768805  MISS:    1723109  HIT %:    91.1599  MISS %:    8.84012   MPKI: 8.61554
L1D RFO       NON_SPEC    ACCESS:   33306054  HIT:   22365641  MISS:   10940413  HIT %:    67.1519  MISS %:    32.8481   MPKI: 54.7021
L1D COMMIT LOAD NON_SPEC    ACCESS:   11626079  HIT:   11376751  MISS:     249328  HIT %:    97.8554  MISS %:    2.14456   MPKI: 1.24664
L1D COMMIT WRITE NON_SPEC    ACCESS:   19177283  HIT:   17602914  MISS:    1574369  HIT %:    91.7904  MISS %:    8.20955   MPKI: 7.87184
L1D PREFETCH  REQUESTED:          0  ISSUED:          0  USEFUL:          0  USELESS:          0
L1D USEFUL LOAD PREFETCHES:          0 PREFETCH ISSUED TO LOWER LEVEL:          0  ACCURACY: -nan
L1D TIMELY PREFETCHES:          0 LATE PREFETCHES: 0 DROPPED PREFETCHES: 0
L1D COMMIT LATE PREFETCHES: 0 NORMAL LATE: 0 MISSED OPPORTUNITY: 0 UNCOVERED: 1981669
L1D PREFETCHES SAME FILL-ORIGIN LEVEL: 0 DIFFERENT FILL-ORIGIN LEVEL: 0
L1D AVERAGE MISS LATENCY: 285.002 cycles
L1D AVERAGE MISS LATENCY LOAD: 140.047 cycles
L1D AVERAGE MISS LATENCY PREFETCH: -nan cycles
L1D AVERAGE MSHR OCCUPANCY: 15.2011
L1D MSHR FULL: 0.892473
L1D RQ	ACCESS:   46902997	FORWARD:          0	MERGED:   13489764	TO_CACHE:   33018111
L1D WQ	ACCESS:   53952589	FORWARD:     395122	MERGED:    1286561	TO_CACHE:   52666028

L1D UNIQUE REGIONS ACCESSED: 0
L1D REGIONS CONFLICTS: 0
L1D Cross Page Prefetch Requests: 0
L1D Same Page Prefetch Requests: 0
L1D ROI Sum of L1D PQ occupancy: 0
L1D PREFETCHES PUSHED FROM L2C: 0
L1I SPEC fills:          0  NON-SPEC fills:          0
L1I Test counter :          0
L1I Leapfrog:          0
L1I MSHR merge:          0
L1I TOTAL     ACCESS:   34431281  HIT:   34431281  MISS:          0  HIT %:        100  MISS %:          0   MPKI: 0
L1I LOAD      TOTAL       ACCESS:   34431281  HIT:   34431281  MISS:          0  HIT %:        100  MISS %:          0   MPKI: 0
L1I LOAD      NON_SPEC    ACCESS:   34431281  HIT:   34431281  MISS:          0  HIT %:        100  MISS %:          0   MPKI: 0
L1I PREFETCH  REQUESTED:          0  ISSUED:          0  USEFUL:          0  USELESS:          0
L1I USEFUL LOAD PREFETCHES:          0 PREFETCH ISSUED TO LOWER LEVEL:          0  ACCURACY: -nan
L1I TIMELY PREFETCHES:          0 LATE PREFETCHES: 0 DROPPED PREFETCHES: 0
L1I COMMIT LATE PREFETCHES: 0 NORMAL LATE: 0 MISSED OPPORTUNITY: 0 UNCOVERED: 0
L1I PREFETCHES SAME FILL-ORIGIN LEVEL: 0 DIFFERENT FILL-ORIGIN LEVEL: 0
L1I AVERAGE MISS LATENCY: -nan cycles
L1I AVERAGE MISS LATENCY LOAD: -nan cycles
L1I AVERAGE MISS LATENCY PREFETCH: -nan cycles
L1I AVERAGE MSHR OCCUPANCY: 0
L1I MSHR FULL: 0
L1I RQ	ACCESS:   49206604	FORWARD:          0	MERGED:   14775321	TO_CACHE:   34431283

BTB SPEC fills:          0  NON-SPEC fills:          0
BTB Test counter :          0
BTB Leapfrog:          0
BTB MSHR merge:          0
BTB TOTAL     ACCESS:    3122104  HIT:    3122098  MISS:          6  HIT %:    99.9998  MISS %: 0.000192178   MPKI: 3e-05
BTB BRANCH_DIRECT_JUMP	ACCESS:     397756  HIT:     397755  MISS:          1
BTB BRANCH_INDIRECT	ACCESS:          0  HIT:          0  MISS:          0
BTB BRANCH_CONDITIONAL	ACCESS:    2724348  HIT:    2724343  MISS:          5
BTB BRANCH_DIRECT_CALL	ACCESS:          0  HIT:          0  MISS:          0
BTB BRANCH_INDIRECT_CALL	ACCESS:          0  HIT:          0  MISS:          0
BTB BRANCH_RETURN	ACCESS:          0  HIT:          0  MISS:          0
BTB BRANCH_OTHER ACCESS:          0  HIT:          0  MISS:          0

L2C SPEC fills:          0  NON-SPEC fills:      22752
L2C Test counter :          0
L2C Leapfrog:          0
L2C MSHR merge:      93351
L2C TOTAL     ACCESS:   28447643  HIT:   20336339  MISS:    8111304  HIT %:    71.4869  MISS %:    28.5131   MPKI: 40.5565
L2C LOAD      TOTAL       ACCESS:    1981666  HIT:    1780826  MISS:     200840  HIT %:    89.8651  MISS %:    10.1349   MPKI: 1.0042
L2C LOAD      NON_SPEC    ACCESS:     258559  HIT:     235807  MISS:      22752  HIT %:    91.2005  MISS %:    8.79954   MPKI: 0.11376
L2C LOAD      SPEC        ACCESS:    1723107  HIT:    1545019  MISS:     178088  HIT %:    89.6647  MISS %:    10.3353   MPKI: 0.89044
L2C RFO       NON_SPEC    ACCESS:   10940408  HIT:    4982318  MISS:    5958090  HIT %:    45.5405  MISS %:    54.4595   MPKI: 29.7904
L2C PREFETCH  NON_SPEC    ACCESS:    1758611  HIT:        130  MISS:    1758481  HIT %:  0.0073922  MISS %:    99.9926   MPKI: 8.7924
L2C WRITEBACK NON_SPEC    ACCESS:   10940422  HIT:   10939989  MISS:        433  HIT %:     99.996  MISS %:  0.0039578   MPKI: 0.002165
L2C CLEAN_EVICTION NON_SPEC    ACCESS:    1964979  HIT:    1812331  MISS:     152648  HIT %:    92.2316  MISS %:    7.76843   MPKI: 0.76324
L2C COMMIT LOAD NON_SPEC    ACCESS:     249328  HIT:     223968  MISS:      25360  HIT %:    89.8287  MISS %:    10.1713   MPKI: 0.1268
L2C LOAD TRANSLATION NON_SPEC    ACCESS:     612229  HIT:     596777  MISS:      15452  HIT %:    97.4761  MISS %:    2.52389   MPKI: 0.07726
L2C PREFETCH  REQUESTED:    1897609  ISSUED:    1897609  USEFUL:    1758408  USELESS:        107
L2C USEFUL LOAD PREFETCHES:    1758408 PREFETCH ISSUED TO LOWER LEVEL:    1851832  ACCURACY: 94.955
L2C TIMELY PREFETCHES:    1758408 LATE PREFETCHES: 93351 DROPPED PREFETCHES: 0
L2C COMMIT LATE PREFETCHES: 0 NORMAL LATE: 93351 MISSED OPPORTUNITY: 0 UNCOVERED: 107489
L2C PREFETCHES SAME FILL-ORIGIN LEVEL: 1851832 DIFFERENT FILL-ORIGIN LEVEL: 0
L2C AVERAGE MISS LATENCY: 643.955 cycles
L2C AVERAGE MISS LATENCY LOAD: 830.343 cycles
L2C AVERAGE MISS LATENCY PREFETCH: 740.364 cycles
L2C AVERAGE MSHR OCCUPANCY: 17.2164
L2C MSHR FULL: 0.248787
L2C RQ	ACCESS:   13783644	FORWARD:          0	MERGED:          0	TO_CACHE:   13783636
L2C WQ	ACCESS:   12905414	FORWARD:         10	MERGED:         13	TO_CACHE:   12905401
L2C PQ	ACCESS:    1897609	FORWARD:          0	MERGED:          0	TO_CACHE:    1897607

L2C Instructions Evicting Data 0
L2C Translations Evicting Data 15386
L2C Data Evicting Data 7749623
L2C Instructions Evicting Instructions 0
L2C Translations Evicting Instructions 0
L2C Data Evicting Instructions 0
L2C Instructions Evicting Translations 0
L2C Translations Evicting Translations 66
L2C Data Evicting Translations 15060
L2C Dense regions hint from L2: 0
PSCL5 SPEC fills:          0  NON-SPEC fills:          0
PSCL5 Test counter :          0
PSCL5 Leapfrog:          0
PSCL5 MSHR merge:          0
PSCL5 TOTAL     ACCESS:          0  HIT:          0  MISS:          0  HIT %:       -nan  MISS %:       -nan   MPKI: 0
PSCL5 PREFETCH  REQUESTED:          0  ISSUED:          0  USEFUL:          0  USELESS:          0
PSCL5 USEFUL LOAD PREFETCHES:          0 PREFETCH ISSUED TO LOWER LEVEL:          0  ACCURACY: -nan
PSCL5 TIMELY PREFETCHES:          0 LATE PREFETCHES: 0 DROPPED PREFETCHES: 0
PSCL5 COMMIT LATE PREFETCHES: 0 NORMAL LATE: 0 MISSED OPPORTUNITY: 0 UNCOVERED: 0
PSCL5 PREFETCHES SAME FILL-ORIGIN LEVEL: 0 DIFFERENT FILL-ORIGIN LEVEL: 0

PSCL4 SPEC fills:          0  NON-SPEC fills:          0
PSCL4 Test counter :          0
PSCL4 Leapfrog:          0
PSCL4 MSHR merge:          0
PSCL4 TOTAL     ACCESS:          0  HIT:          0  MISS:          0  HIT %:       -nan  MISS %:       -nan   MPKI: 0
PSCL4 PREFETCH  REQUESTED:          0  ISSUED:          0  USEFUL:          0  USELESS:          0
PSCL4 USEFUL LOAD PREFETCHES:          0 PREFETCH ISSUED TO LOWER LEVEL:          0  ACCURACY: -nan
PSCL4 TIMELY PREFETCHES:          0 LATE PREFETCHES: 0 DROPPED PREFETCHES: 0
PSCL4 COMMIT LATE PREFETCHES: 0 NORMAL LATE: 0 MISSED OPPORTUNITY: 0 UNCOVERED: 0
PSCL4 PREFETCHES SAME FILL-ORIGIN LEVEL: 0 DIFFERENT FILL-ORIGIN LEVEL: 0

PSCL3 SPEC fills:          0  NON-SPEC fills:          0
PSCL3 Test counter :          0
PSCL3 Leapfrog:          0
PSCL3 MSHR merge:          0
PSCL3 TOTAL     ACCESS:          0  HIT:          0  MISS:          0  HIT %:       -nan  MISS %:       -nan   MPKI: 0
PSCL3 PREFETCH  REQUESTED:          0  ISSUED:          0  USEFUL:          0  USELESS:          0
PSCL3 USEFUL LOAD PREFETCHES:          0 PREFETCH ISSUED TO LOWER LEVEL:          0  ACCURACY: -nan
PSCL3 TIMELY PREFETCHES:          0 LATE PREFETCHES: 0 DROPPED PREFETCHES: 0
PSCL3 COMMIT LATE PREFETCHES: 0 NORMAL LATE: 0 MISSED OPPORTUNITY: 0 UNCOVERED: 0
PSCL3 PREFETCHES SAME FILL-ORIGIN LEVEL: 0 DIFFERENT FILL-ORIGIN LEVEL: 0

PSCL2 SPEC fills:          0  NON-SPEC fills:          0
PSCL2 Test counter :          0
PSCL2 Leapfrog:          0
PSCL2 MSHR merge:          0
PSCL2 TOTAL     ACCESS:          0  HIT:          0  MISS:          0  HIT %:       -nan  MISS %:       -nan   MPKI: 0
PSCL2 PREFETCH  REQUESTED:          0  ISSUED:          0  USEFUL:          0  USELESS:          0
PSCL2 USEFUL LOAD PREFETCHES:          0 PREFETCH ISSUED TO LOWER LEVEL:          0  ACCURACY: -nan
PSCL2 TIMELY PREFETCHES:          0 LATE PREFETCHES: 0 DROPPED PREFETCHES: 0
PSCL2 COMMIT LATE PREFETCHES: 0 NORMAL LATE: 0 MISSED OPPORTUNITY: 0 UNCOVERED: 0
PSCL2 PREFETCHES SAME FILL-ORIGIN LEVEL: 0 DIFFERENT FILL-ORIGIN LEVEL: 0

LLC SPEC fills:          0  NON-SPEC fills:      21506
LLC Test counter :          0
LLC Leapfrog:          0
LLC MSHR merge:          0
LLC TOTAL     ACCESS:   15866751  HIT:    7936529  MISS:    7930222  HIT %:    50.0199  MISS %:    49.9801   MPKI: 39.6511
LLC LOAD      TOTAL       ACCESS:     107489  HIT:        208  MISS:     107281  HIT %:   0.193508  MISS %:    99.8065   MPKI: 0.536405
LLC LOAD      NON_SPEC    ACCESS:      21524  HIT:         18  MISS:      21506  HIT %:  0.0836276  MISS %:    99.9164   MPKI: 0.10753
LLC LOAD      SPEC        ACCESS:      85965  HIT:        190  MISS:      85775  HIT %:    0.22102  MISS %:     99.779   MPKI: 0.428875
LLC RFO       NON_SPEC    ACCESS:    5958034  HIT:      88422  MISS:    5869612  HIT %:    1.48408  MISS %:    98.5159   MPKI: 29.3481
LLC PREFETCH  NON_SPEC    ACCESS:    1851832  HIT:         54  MISS:    1851778  HIT %: 0.00291603  MISS %:    99.9971   MPKI: 9.25889
LLC WRITEBACK NON_SPEC    ACCESS:    5957789  HIT:    5957476  MISS:        313  HIT %:    99.9947  MISS %: 0.00525363   MPKI: 0.001565
LLC CLEAN_EVICTION NON_SPEC    ACCESS:    1950795  HIT:    1870434  MISS:      80361  HIT %:    95.8806  MISS %:     4.1194   MPKI: 0.401805
LLC COMMIT LOAD NON_SPEC    ACCESS:      25360  HIT:      19935  MISS:       5425  HIT %:     78.608  MISS %:     21.392   MPKI: 0.027125
LLC LOAD TRANSLATION NON_SPEC    ACCESS:      15452  HIT:          0  MISS:      15452  HIT %:          0  MISS %:        100   MPKI: 0.07726
LLC PREFETCH  REQUESTED:          0  ISSUED:          0  USEFUL:      20139  USELESS:    1834430
LLC USEFUL LOAD PREFETCHES:      20139 PREFETCH ISSUED TO LOWER LEVEL:    1851778  ACCURACY: 1.08755
LLC TIMELY PREFETCHES:      20139 LATE PREFETCHES: 0 DROPPED PREFETCHES: 0
LLC COMMIT LATE PREFETCHES: 0 NORMAL LATE: 0 MISSED OPPORTUNITY: 0 UNCOVERED: 107281
LLC PREFETCHES SAME FILL-ORIGIN LEVEL: 0 DIFFERENT FILL-ORIGIN LEVEL: 0
LLC AVERAGE MISS LATENCY: 629.452 cycles
LLC AVERAGE MISS LATENCY LOAD: 741.191 cycles
LLC AVERAGE MISS LATENCY PREFETCH: 726.412 cycles
LLC AVERAGE MSHR OCCUPANCY: 11.6013
LLC MSHR FULL: 0
LLC RQ	ACCESS:    6106395	FORWARD:          0	MERGED:          0	TO_CACHE:    6106339
LLC WQ	ACCESS:    7908584	FORWARD:         56	MERGED:          0	TO_CACHE:    7908584
LLC PQ	ACCESS:    1851832	FORWARD:          0	MERGED:          0	TO_CACHE:    1851832

LLC Dense regions hint to LLC: 0

RAW hits: 2025701
Loads Generated: 50393882
Loads sent to L1D: 48368179
Stores Generated: 34563853
Stores sent to L1D: 34563860
Major fault: 0 Minor fault: 72955
Allocated PAGES: 72955
Total Load insts: 58341237
Total Non-spec loads: 3803354
Percentage of speculative loads: 93.4809

LeapFrogging counter: 17798115
Commit hits: 19463308 miss: 25516737
Commit hit %: 43.271 miss %: 56.729
Commits not translated: 0
Loads retired: 1981669
Stores retired: 34563860
Cache fills: 1981669
L1D response latency: 140.047 cycles
Load retirement latency: 635.21 cycles
OOO test counter: 0
Discarded buffer inserts: 19463308 hits: 294209 hit %: 1.51161
Filter prediction accuracy: -nan
[Bingo] PHT Access: 61361
[Bingo] PHT Hit PC+Addr: 408
[Bingo] PHT Hit PC+Offs: 60927
[Bingo] PHT Miss: 26
[Bingo] Prefetch PC+Addr: 0
[Bingo] Prefetch PC+Offs: 0
[Bingo] Useful PC+Addr: 0
[Bingo] Useful PC+Offs: 0
[Bingo] Useless PC+Addr: 0
[Bingo] Useless PC+Offs: 0
[Bingo] L1 Prefetch per Region: 0
[Bingo] L2 Prefetch per Region: 31.9384
[Bingo] L3 Prefetch per Region: 0
[Bingo] No Prefetch per Region: 0.0615635
[Bingo] Number of Voters Mean: 15.9772
[Bingo] Number of Voters SD: 5.89044
PHT read accesses: 976344
PHT write accesses: 61325
AT read accesses: 1981040
AT write accesses: 1981570
FT read accesses: 184063
FT write accesses: 61361
PS read accesses: 324032
PS write accesses: 61335
PHT tag read accesses: 2933938
PHT tag write accesses: 61733
AT tag read accesses: 160894923
AT tag write accesses: 2042348
FT tag read accesses: 130919488
FT tag write accesses: 184073
PS tag read accesses: 33730712
PS tag write accesses: 385367

DRAM Statistics
 CHANNEL 0
 RQ ROW_BUFFER_HIT:    1038239  ROW_BUFFER_MISS:    6811309
 DBUS_CONGESTED:          1
 WQ ROW_BUFFER_HIT:    1948433  ROW_BUFFER_MISS:    5871400  FULL:       1867

 AVG_CONGESTED_CYCLE: 8
 All warmup complete: 2
Channel 0 Bank busy for read cycles: 0
Channel 0 Bank busy for write cycles: 0
Channel 0
Rank 0
0banks busy for read cycles: 50292876
0banks busy for write cycles: 20345
1banks busy for read cycles: 6129540
1banks busy for write cycles: 2476419
2banks busy for read cycles: 7679836
2banks busy for write cycles: 2245364
3banks busy for read cycles: 15976659
3banks busy for write cycles: 2093009
4banks busy for read cycles: 19612257
4banks busy for write cycles: 2065743
5banks busy for read cycles: 36477090
5banks busy for write cycles: 2079049
6banks busy for read cycles: 39696364
6banks busy for write cycles: 2358653
7banks busy for read cycles: 34727157
7banks busy for write cycles: 10241279
8banks busy for read cycles: 51979865
8banks busy for write cycles: 140711285

CPU 0 Branch Prediction Accuracy: 97.6561% MPKI: 0.365925 Average ROB Occupancy at Mispredict: 165.626
Branch types
NOT_BRANCH: 196877353 98.4387%
BRANCH_DIRECT_JUMP: 397756 0.198878%
BRANCH_INDIRECT: 0 0%
BRANCH_CONDITIONAL: 2724542 1.36227%
BRANCH_DIRECT_CALL: 0 0%
BRANCH_INDIRECT_CALL: 0 0%
BRANCH_RETURN: 0 0%
BRANCH_OTHER: 0 0%

DRAM PAGES: 1048576
Allocated PAGES: 72955
