
*** ChampSim Multicore Out-of-Order Simulator ***

Warmup Instructions: 50000000
Simulation Instructions: 200000000
Number of CPUs: 1
LLC sets: 2048
LLC ways: 16
L0D sets: 16
L0D ways: 2
ROB size: 352
LQ size: 128
SQ size: 72
Secure Berti: OFF
Berti: OFF
Berti Fill: OFF
On commit prefetching: OFF
Hit-based filter: OFF
Time-guarding: ON
Free-slotting: ON
Leap-frogging: ON
Train prefetcher on L0D bypass: OFF
No translation penalty for prefetchers: OFF
Prefetch to L0D only: OFF
Prefetch to L1D only: OFF
Clean evictions: ON
Commit loads: ON
Commit write: ON
Fill commit loads to L2C, LLC: ON
DRAM IO FREQUENCY: 6400
ROB SIZE: 352
Off-chip DRAM Size: 4096 MB Channels: 1 Width: 64-bit Data Rate: 6400 MT/s
CPU 0 runs /home/sumon/secure_berti/GhostMinion/../../traces/spec/619.lbm_s-2677B.champsimtrace.xz
.xz
BTB has LRU replacement policy
ITLB has LRU replacement policy
DTLB has LRU replacement policy
STLB has LRU replacement policy
L1I has LRU replacement policy
L0D has LRU replacement policy
L1D has LRU replacement policy
Bingo PHT WAYS: 16 and PHT_SIZE: 16384
L2C has LRU replacement policy
LLC has LRU replacement policy
Heartbeat CPU 0 instructions: 10000001 cycles: 3055404 heartbeat IPC: 3.27289 cumulative IPC: 3.27289 (Simulation time: 0 hr 1 min 14 sec) 
Heartbeat CPU 0 instructions: 20000003 cycles: 6099546 heartbeat IPC: 3.285 cumulative IPC: 3.27893 (Simulation time: 0 hr 2 min 26 sec) 
Heartbeat CPU 0 instructions: 30000000 cycles: 9151569 heartbeat IPC: 3.27651 cumulative IPC: 3.27813 (Simulation time: 0 hr 3 min 47 sec) 
Heartbeat CPU 0 instructions: 40000000 cycles: 12201772 heartbeat IPC: 3.27847 cumulative IPC: 3.27821 (Simulation time: 0 hr 5 min 12 sec) 
Heartbeat CPU 0 instructions: 50000003 cycles: 15258216 heartbeat IPC: 3.27178 cumulative IPC: 3.27692 (Simulation time: 0 hr 6 min 38 sec) 

Warmup complete CPU 0 instructions: 50000003 cycles: 15258216 (Simulation time: 0 hr 6 min 38 sec) 

Heartbeat CPU 0 instructions: 60000001 cycles: 42046048 heartbeat IPC: 0.373304 cumulative IPC: 0.373304 (Simulation time: 0 hr 10 min 42 sec) 
Heartbeat CPU 0 instructions: 70000002 cycles: 68300798 heartbeat IPC: 0.380883 cumulative IPC: 0.377056 (Simulation time: 0 hr 14 min 42 sec) 
Heartbeat CPU 0 instructions: 80000001 cycles: 94659960 heartbeat IPC: 0.379375 cumulative IPC: 0.377825 (Simulation time: 0 hr 18 min 45 sec) 
Heartbeat CPU 0 instructions: 90000002 cycles: 121878803 heartbeat IPC: 0.367393 cumulative IPC: 0.375162 (Simulation time: 0 hr 22 min 53 sec) 
Heartbeat CPU 0 instructions: 100000000 cycles: 148468102 heartbeat IPC: 0.376091 cumulative IPC: 0.375347 (Simulation time: 0 hr 26 min 54 sec) 
Heartbeat CPU 0 instructions: 110000000 cycles: 175746238 heartbeat IPC: 0.366594 cumulative IPC: 0.37386 (Simulation time: 0 hr 30 min 50 sec) 
Heartbeat CPU 0 instructions: 120000000 cycles: 202512370 heartbeat IPC: 0.373606 cumulative IPC: 0.373823 (Simulation time: 0 hr 34 min 28 sec) 
Heartbeat CPU 0 instructions: 130000001 cycles: 228843763 heartbeat IPC: 0.379775 cumulative IPC: 0.374557 (Simulation time: 0 hr 37 min 51 sec) 
Heartbeat CPU 0 instructions: 140000001 cycles: 255661786 heartbeat IPC: 0.372884 cumulative IPC: 0.37437 (Simulation time: 0 hr 41 min 28 sec) 
Heartbeat CPU 0 instructions: 150000000 cycles: 282918364 heartbeat IPC: 0.366884 cumulative IPC: 0.373608 (Simulation time: 0 hr 44 min 55 sec) 
Heartbeat CPU 0 instructions: 160000003 cycles: 309628329 heartbeat IPC: 0.374392 cumulative IPC: 0.373679 (Simulation time: 0 hr 48 min 16 sec) 
Heartbeat CPU 0 instructions: 170000000 cycles: 335833844 heartbeat IPC: 0.381599 cumulative IPC: 0.374327 (Simulation time: 0 hr 51 min 34 sec) 
Heartbeat CPU 0 instructions: 180000000 cycles: 361397095 heartbeat IPC: 0.391187 cumulative IPC: 0.375572 (Simulation time: 0 hr 54 min 44 sec) 
Heartbeat CPU 0 instructions: 190000000 cycles: 387700731 heartbeat IPC: 0.380176 cumulative IPC: 0.375897 (Simulation time: 0 hr 58 min 3 sec) 
Heartbeat CPU 0 instructions: 200000000 cycles: 413990266 heartbeat IPC: 0.380379 cumulative IPC: 0.376192 (Simulation time: 1 hr 1 min 22 sec) 
Heartbeat CPU 0 instructions: 210000000 cycles: 440111162 heartbeat IPC: 0.382835 cumulative IPC: 0.376601 (Simulation time: 1 hr 4 min 38 sec) 
Heartbeat CPU 0 instructions: 220000000 cycles: 467211088 heartbeat IPC: 0.369005 cumulative IPC: 0.376145 (Simulation time: 1 hr 8 min 2 sec) 
Heartbeat CPU 0 instructions: 230000000 cycles: 493978551 heartbeat IPC: 0.373588 cumulative IPC: 0.376002 (Simulation time: 1 hr 11 min 26 sec) 
Heartbeat CPU 0 instructions: 240000001 cycles: 522368323 heartbeat IPC: 0.35224 cumulative IPC: 0.374672 (Simulation time: 1 hr 15 min 1 sec) 
Heartbeat CPU 0 instructions: 250000003 cycles: 550092144 heartbeat IPC: 0.360701 cumulative IPC: 0.373948 (Simulation time: 1 hr 18 min 32 sec) 
Finished CPU 0 instructions: 200000000 cycles: 534833928 cumulative IPC: 0.373948 (Simulation time: 1 hr 18 min 32 sec) 
 Instruction ID: 250000155

ChampSim completed all CPUs

Region of Interest Statistics

CPU 0 cumulative IPC: 0.373948 instructions: 200000000 cycles: 534833928
ITLB SPEC fills:          0  NON-SPEC fills:          0
ITLB Test counter :          0
ITLB Leapfrog:          0
ITLB MSHR merge:          0
ITLB TOTAL     ACCESS:   26857763  HIT:   26857763  MISS:          0  HIT %:        100  MISS %:          0   MPKI: 0
ITLB LOAD TRANSLATION NON_SPEC    ACCESS:   26857763  HIT:   26857763  MISS:          0  HIT %:        100  MISS %:          0   MPKI: 0
ITLB PREFETCH  REQUESTED:          0  ISSUED:          0  USEFUL:          0  USELESS:          0
ITLB USEFUL LOAD PREFETCHES:          0 PREFETCH ISSUED TO LOWER LEVEL:          0  ACCURACY: -nan
ITLB TIMELY PREFETCHES:          0 LATE PREFETCHES: 0 DROPPED PREFETCHES: 0
ITLB COMMIT LATE PREFETCHES: 0 NORMAL LATE: 0 MISSED OPPORTUNITY: 0 UNCOVERED: 0
ITLB PREFETCHES SAME FILL-ORIGIN LEVEL: 0 DIFFERENT FILL-ORIGIN LEVEL: 0
ITLB AVERAGE MISS LATENCY: -nan cycles
ITLB AVERAGE MISS LATENCY LOAD: -nan cycles
ITLB AVERAGE MISS LATENCY PREFETCH: -nan cycles
ITLB AVERAGE MSHR OCCUPANCY: 0
ITLB MSHR FULL: 0
ITLB RQ	ACCESS:   34668856	FORWARD:          0	MERGED:    7811094	TO_CACHE:   26857762

DTLB SPEC fills:          0  NON-SPEC fills:          0
DTLB Test counter :          0
DTLB Leapfrog:          0
DTLB MSHR merge:          0
DTLB TOTAL     ACCESS:   46297335  HIT:   46021288  MISS:     276047  HIT %:    99.4038  MISS %:   0.596248   MPKI: 1.38024
DTLB LOAD TRANSLATION NON_SPEC    ACCESS:   46297335  HIT:   46021288  MISS:     276047  HIT %:    99.4038  MISS %:   0.596248   MPKI: 1.38024
DTLB PREFETCH  REQUESTED:          0  ISSUED:          0  USEFUL:          0  USELESS:          0
DTLB USEFUL LOAD PREFETCHES:          0 PREFETCH ISSUED TO LOWER LEVEL:          0  ACCURACY: -nan
DTLB TIMELY PREFETCHES:          0 LATE PREFETCHES: 0 DROPPED PREFETCHES: 0
DTLB COMMIT LATE PREFETCHES: 0 NORMAL LATE: 0 MISSED OPPORTUNITY: 0 UNCOVERED: 0
DTLB PREFETCHES SAME FILL-ORIGIN LEVEL: 0 DIFFERENT FILL-ORIGIN LEVEL: 0
DTLB AVERAGE MISS LATENCY: 134.709 cycles
DTLB AVERAGE MISS LATENCY LOAD: -nan cycles
DTLB AVERAGE MISS LATENCY PREFETCH: -nan cycles
DTLB AVERAGE MSHR OCCUPANCY: 0.0955591
DTLB MSHR FULL: 0
DTLB RQ	ACCESS:   67763377	FORWARD:          0	MERGED:   21300842	TO_CACHE:   46462535

STLB SPEC fills:          0  NON-SPEC fills:          0
STLB Test counter :          0
STLB Leapfrog:          0
STLB MSHR merge:          0
STLB TOTAL     ACCESS:     276047  HIT:     126263  MISS:     149784  HIT %:    45.7397  MISS %:    54.2603   MPKI: 0.74892
STLB LOAD TRANSLATION NON_SPEC    ACCESS:     276047  HIT:     126263  MISS:     149784  HIT %:    45.7397  MISS %:    54.2603   MPKI: 0.74892
STLB PREFETCH  REQUESTED:          0  ISSUED:          0  USEFUL:          0  USELESS:          0
STLB USEFUL LOAD PREFETCHES:          0 PREFETCH ISSUED TO LOWER LEVEL:          0  ACCURACY: -nan
STLB TIMELY PREFETCHES:          0 LATE PREFETCHES: 0 DROPPED PREFETCHES: 0
STLB COMMIT LATE PREFETCHES: 0 NORMAL LATE: 0 MISSED OPPORTUNITY: 0 UNCOVERED: 0
STLB PREFETCHES SAME FILL-ORIGIN LEVEL: 0 DIFFERENT FILL-ORIGIN LEVEL: 0
STLB AVERAGE MISS LATENCY: 231.556 cycles
STLB AVERAGE MISS LATENCY LOAD: -nan cycles
STLB AVERAGE MISS LATENCY PREFETCH: -nan cycles
STLB AVERAGE MSHR OCCUPANCY: 0.183443
STLB MSHR FULL: 0
STLB RQ	ACCESS:     276047	FORWARD:          0	MERGED:          0	TO_CACHE:     276047

STLB Hit, L1D data hit: 0
STLB Hit, L2C data hit: 0
STLB Hit, LLC data hit: 0
STLB Hit, LLC data miss: 0
STLB STLB hints to L2: 0
L0D SPEC fills:   18449814  NON-SPEC fills:          0
L0D TimeGuard Request with older TS:      69817 Restricted eviction:     139209 read:     602769
L0D Test counter :          0
L0D Leapfrog:          0
L0D MSHR merge:    3924093
L0D TOTAL     ACCESS:   26894351  HIT:    6421073  MISS:   20473278  HIT %:    23.8752  MISS %:    76.1248   MPKI: 102.366
L0D LOAD      TOTAL       ACCESS:   26894351  HIT:    6421073  MISS:   20473278  HIT %:    23.8752  MISS %:    76.1248   MPKI: 102.366
L0D LOAD      NON_SPEC    ACCESS:    2675218  HIT:     790963  MISS:    1884255  HIT %:    29.5663  MISS %:    70.4337   MPKI: 9.42127
L0D LOAD      SPEC        ACCESS:   24219133  HIT:    5630110  MISS:   18589023  HIT %:    23.2465  MISS %:    76.7535   MPKI: 92.9451
L0D PREFETCH  REQUESTED:          0  ISSUED:          0  USEFUL:          0  USELESS:          0
L0D USEFUL LOAD PREFETCHES:          0 PREFETCH ISSUED TO LOWER LEVEL:          0  ACCURACY: -nan
L0D TIMELY PREFETCHES:          0 LATE PREFETCHES: 0 DROPPED PREFETCHES: 0
L0D COMMIT LATE PREFETCHES: 0 NORMAL LATE: 0 MISSED OPPORTUNITY: 0 UNCOVERED: 20473278
L0D PREFETCHES SAME FILL-ORIGIN LEVEL: 0 DIFFERENT FILL-ORIGIN LEVEL: 0
L0D AVERAGE MISS LATENCY: 66.1749 cycles
L0D AVERAGE MISS LATENCY LOAD: 66.1749 cycles
L0D AVERAGE MISS LATENCY PREFETCH: -nan cycles
L0D AVERAGE MSHR OCCUPANCY: 2.58649
L0D MSHR FULL: 0.21368
L0D RQ	ACCESS:   49996181	FORWARD:          0	MERGED:   19177741	TO_CACHE:   30818440
L0D WQ	ACCESS:   36944937	FORWARD:          0	MERGED:          0	TO_CACHE:   36944937

L1D SPEC fills:          0  NON-SPEC fills:     232720
L1D Test counter :          0
L1D Leapfrog:          0
L1D MSHR merge:      25443
L1D TOTAL     ACCESS:   85749979  HIT:   67603387  MISS:   18146592  HIT %:    78.8378  MISS %:    21.1622   MPKI: 90.733
L1D LOAD      TOTAL       ACCESS:   20447834  HIT:   18019808  MISS:    2428026  HIT %:    88.1258  MISS %:    11.8742   MPKI: 12.1401
L1D LOAD      NON_SPEC    ACCESS:    1873289  HIT:    1640569  MISS:     232720  HIT %:    87.5769  MISS %:    12.4231   MPKI: 1.1636
L1D LOAD      SPEC        ACCESS:   18574545  HIT:   16379239  MISS:    2195306  HIT %:    88.1811  MISS %:    11.8189   MPKI: 10.9765
L1D RFO       NON_SPEC    ACCESS:   35535207  HIT:   22160273  MISS:   13374934  HIT %:    62.3615  MISS %:    37.6385   MPKI: 66.8747
L1D COMMIT LOAD NON_SPEC    ACCESS:   11776461  HIT:   11413016  MISS:     363445  HIT %:    96.9138  MISS %:     3.0862   MPKI: 1.81723
L1D COMMIT WRITE NON_SPEC    ACCESS:   17990477  HIT:   16010290  MISS:    1980187  HIT %:    88.9931  MISS %:    11.0069   MPKI: 9.90094
L1D PREFETCH  REQUESTED:          0  ISSUED:          0  USEFUL:          0  USELESS:          0
L1D USEFUL LOAD PREFETCHES:          0 PREFETCH ISSUED TO LOWER LEVEL:          0  ACCURACY: -nan
L1D TIMELY PREFETCHES:          0 LATE PREFETCHES: 0 DROPPED PREFETCHES: 0
L1D COMMIT LATE PREFETCHES: 0 NORMAL LATE: 0 MISSED OPPORTUNITY: 0 UNCOVERED: 2428026
L1D PREFETCHES SAME FILL-ORIGIN LEVEL: 0 DIFFERENT FILL-ORIGIN LEVEL: 0
L1D AVERAGE MISS LATENCY: 295.054 cycles
L1D AVERAGE MISS LATENCY LOAD: 160.617 cycles
L1D AVERAGE MISS LATENCY PREFETCH: -nan cycles
L1D AVERAGE MSHR OCCUPANCY: 15.4678
L1D MSHR FULL: 0.927181
L1D RQ	ACCESS:   49001951	FORWARD:          0	MERGED:   16197657	TO_CACHE:   32257598
L1D WQ	ACCESS:   55221009	FORWARD:     546696	MERGED:    1437030	TO_CACHE:   53783979

L1D UNIQUE REGIONS ACCESSED: 0
L1D REGIONS CONFLICTS: 0
L1D Cross Page Prefetch Requests: 0
L1D Same Page Prefetch Requests: 0
L1D ROI Sum of L1D PQ occupancy: 0
L1D PREFETCHES PUSHED FROM L2C: 0
L1I SPEC fills:          0  NON-SPEC fills:          0
L1I Test counter :          0
L1I Leapfrog:          0
L1I MSHR merge:          0
L1I TOTAL     ACCESS:   34668856  HIT:   34668856  MISS:          0  HIT %:        100  MISS %:          0   MPKI: 0
L1I LOAD      TOTAL       ACCESS:   34668856  HIT:   34668856  MISS:          0  HIT %:        100  MISS %:          0   MPKI: 0
L1I LOAD      NON_SPEC    ACCESS:   34668856  HIT:   34668856  MISS:          0  HIT %:        100  MISS %:          0   MPKI: 0
L1I PREFETCH  REQUESTED:          0  ISSUED:          0  USEFUL:          0  USELESS:          0
L1I USEFUL LOAD PREFETCHES:          0 PREFETCH ISSUED TO LOWER LEVEL:          0  ACCURACY: -nan
L1I TIMELY PREFETCHES:          0 LATE PREFETCHES: 0 DROPPED PREFETCHES: 0
L1I COMMIT LATE PREFETCHES: 0 NORMAL LATE: 0 MISSED OPPORTUNITY: 0 UNCOVERED: 0
L1I PREFETCHES SAME FILL-ORIGIN LEVEL: 0 DIFFERENT FILL-ORIGIN LEVEL: 0
L1I AVERAGE MISS LATENCY: -nan cycles
L1I AVERAGE MISS LATENCY LOAD: -nan cycles
L1I AVERAGE MISS LATENCY PREFETCH: -nan cycles
L1I AVERAGE MSHR OCCUPANCY: 0
L1I MSHR FULL: 0
L1I RQ	ACCESS:   49960715	FORWARD:          0	MERGED:   15291859	TO_CACHE:   34668856

BTB SPEC fills:          0  NON-SPEC fills:          0
BTB Test counter :          0
BTB Leapfrog:          0
BTB MSHR merge:          0
BTB TOTAL     ACCESS:    3609719  HIT:    3609713  MISS:          6  HIT %:    99.9998  MISS %: 0.000166218   MPKI: 3e-05
BTB BRANCH_DIRECT_JUMP	ACCESS:     590927  HIT:     590926  MISS:          1
BTB BRANCH_INDIRECT	ACCESS:          0  HIT:          0  MISS:          0
BTB BRANCH_CONDITIONAL	ACCESS:    3018792  HIT:    3018787  MISS:          5
BTB BRANCH_DIRECT_CALL	ACCESS:          0  HIT:          0  MISS:          0
BTB BRANCH_INDIRECT_CALL	ACCESS:          0  HIT:          0  MISS:          0
BTB BRANCH_RETURN	ACCESS:          0  HIT:          0  MISS:          0
BTB BRANCH_OTHER ACCESS:          0  HIT:          0  MISS:          0

L2C SPEC fills:          0  NON-SPEC fills:      19622
L2C Test counter :          0
L2C Leapfrog:          0
L2C MSHR merge:     131071
L2C TOTAL     ACCESS:   34825743  HIT:   24886651  MISS:    9939092  HIT %:    71.4605  MISS %:    28.5395   MPKI: 49.6955
L2C LOAD      TOTAL       ACCESS:    2428023  HIT:    2163927  MISS:     264096  HIT %:     89.123  MISS %:     10.877   MPKI: 1.32048
L2C LOAD      NON_SPEC    ACCESS:     232720  HIT:     213098  MISS:      19622  HIT %:    91.5684  MISS %:    8.43159   MPKI: 0.09811
L2C LOAD      SPEC        ACCESS:    2195303  HIT:    1950829  MISS:     244474  HIT %:    88.8638  MISS %:    11.1362   MPKI: 1.22237
L2C RFO       NON_SPEC    ACCESS:   13374931  HIT:    6095856  MISS:    7279075  HIT %:    45.5767  MISS %:    54.4233   MPKI: 36.3954
L2C PREFETCH  NON_SPEC    ACCESS:    2132365  HIT:        137  MISS:    2132228  HIT %: 0.00642479  MISS %:    99.9936   MPKI: 10.6611
L2C WRITEBACK NON_SPEC    ACCESS:   13374942  HIT:   13374499  MISS:        443  HIT %:    99.9967  MISS %: 0.00331216   MPKI: 0.002215
L2C CLEAN_EVICTION NON_SPEC    ACCESS:    2403263  HIT:    2196000  MISS:     207263  HIT %:    91.3758  MISS %:    8.62423   MPKI: 1.03632
L2C COMMIT LOAD NON_SPEC    ACCESS:     363445  HIT:     326361  MISS:      37084  HIT %:    89.7965  MISS %:    10.2035   MPKI: 0.18542
L2C LOAD TRANSLATION NON_SPEC    ACCESS:     748774  HIT:     729871  MISS:      18903  HIT %:    97.4755  MISS %:    2.52453   MPKI: 0.094515
L2C PREFETCH  REQUESTED:    2321184  ISSUED:    2321184  USEFUL:    2132127  USELESS:        187
L2C USEFUL LOAD PREFETCHES:    2132127 PREFETCH ISSUED TO LOWER LEVEL:    2263299  ACCURACY: 94.2044
L2C TIMELY PREFETCHES:    2132127 LATE PREFETCHES: 131071 DROPPED PREFETCHES: 0
L2C COMMIT LATE PREFETCHES: 0 NORMAL LATE: 131071 MISSED OPPORTUNITY: 0 UNCOVERED: 133025
L2C PREFETCHES SAME FILL-ORIGIN LEVEL: 2263299 DIFFERENT FILL-ORIGIN LEVEL: 0
L2C AVERAGE MISS LATENCY: 665.753 cycles
L2C AVERAGE MISS LATENCY LOAD: 860.439 cycles
L2C AVERAGE MISS LATENCY PREFETCH: 767.471 cycles
L2C AVERAGE MSHR OCCUPANCY: 18.2915
L2C MSHR FULL: 0.284977
L2C RQ	ACCESS:   16915190	FORWARD:          0	MERGED:          0	TO_CACHE:   16915184
L2C WQ	ACCESS:   15778225	FORWARD:          8	MERGED:         20	TO_CACHE:   15778205
L2C PQ	ACCESS:    2321184	FORWARD:          0	MERGED:          0	TO_CACHE:    2321182

L2C Instructions Evicting Data 0
L2C Translations Evicting Data 18816
L2C Data Evicting Data 9449628
L2C Instructions Evicting Instructions 0
L2C Translations Evicting Instructions 0
L2C Data Evicting Instructions 0
L2C Instructions Evicting Translations 0
L2C Translations Evicting Translations 87
L2C Data Evicting Translations 18381
L2C Dense regions hint from L2: 0
PSCL5 SPEC fills:          0  NON-SPEC fills:          0
PSCL5 Test counter :          0
PSCL5 Leapfrog:          0
PSCL5 MSHR merge:          0
PSCL5 TOTAL     ACCESS:          0  HIT:          0  MISS:          0  HIT %:       -nan  MISS %:       -nan   MPKI: 0
PSCL5 PREFETCH  REQUESTED:          0  ISSUED:          0  USEFUL:          0  USELESS:          0
PSCL5 USEFUL LOAD PREFETCHES:          0 PREFETCH ISSUED TO LOWER LEVEL:          0  ACCURACY: -nan
PSCL5 TIMELY PREFETCHES:          0 LATE PREFETCHES: 0 DROPPED PREFETCHES: 0
PSCL5 COMMIT LATE PREFETCHES: 0 NORMAL LATE: 0 MISSED OPPORTUNITY: 0 UNCOVERED: 0
PSCL5 PREFETCHES SAME FILL-ORIGIN LEVEL: 0 DIFFERENT FILL-ORIGIN LEVEL: 0

PSCL4 SPEC fills:          0  NON-SPEC fills:          0
PSCL4 Test counter :          0
PSCL4 Leapfrog:          0
PSCL4 MSHR merge:          0
PSCL4 TOTAL     ACCESS:          0  HIT:          0  MISS:          0  HIT %:       -nan  MISS %:       -nan   MPKI: 0
PSCL4 PREFETCH  REQUESTED:          0  ISSUED:          0  USEFUL:          0  USELESS:          0
PSCL4 USEFUL LOAD PREFETCHES:          0 PREFETCH ISSUED TO LOWER LEVEL:          0  ACCURACY: -nan
PSCL4 TIMELY PREFETCHES:          0 LATE PREFETCHES: 0 DROPPED PREFETCHES: 0
PSCL4 COMMIT LATE PREFETCHES: 0 NORMAL LATE: 0 MISSED OPPORTUNITY: 0 UNCOVERED: 0
PSCL4 PREFETCHES SAME FILL-ORIGIN LEVEL: 0 DIFFERENT FILL-ORIGIN LEVEL: 0

PSCL3 SPEC fills:          0  NON-SPEC fills:          0
PSCL3 Test counter :          0
PSCL3 Leapfrog:          0
PSCL3 MSHR merge:          0
PSCL3 TOTAL     ACCESS:          0  HIT:          0  MISS:          0  HIT %:       -nan  MISS %:       -nan   MPKI: 0
PSCL3 PREFETCH  REQUESTED:          0  ISSUED:          0  USEFUL:          0  USELESS:          0
PSCL3 USEFUL LOAD PREFETCHES:          0 PREFETCH ISSUED TO LOWER LEVEL:          0  ACCURACY: -nan
PSCL3 TIMELY PREFETCHES:          0 LATE PREFETCHES: 0 DROPPED PREFETCHES: 0
PSCL3 COMMIT LATE PREFETCHES: 0 NORMAL LATE: 0 MISSED OPPORTUNITY: 0 UNCOVERED: 0
PSCL3 PREFETCHES SAME FILL-ORIGIN LEVEL: 0 DIFFERENT FILL-ORIGIN LEVEL: 0

PSCL2 SPEC fills:          0  NON-SPEC fills:          0
PSCL2 Test counter :          0
PSCL2 Leapfrog:          0
PSCL2 MSHR merge:          0
PSCL2 TOTAL     ACCESS:          0  HIT:          0  MISS:          0  HIT %:       -nan  MISS %:       -nan   MPKI: 0
PSCL2 PREFETCH  REQUESTED:          0  ISSUED:          0  USEFUL:          0  USELESS:          0
PSCL2 USEFUL LOAD PREFETCHES:          0 PREFETCH ISSUED TO LOWER LEVEL:          0  ACCURACY: -nan
PSCL2 TIMELY PREFETCHES:          0 LATE PREFETCHES: 0 DROPPED PREFETCHES: 0
PSCL2 COMMIT LATE PREFETCHES: 0 NORMAL LATE: 0 MISSED OPPORTUNITY: 0 UNCOVERED: 0
PSCL2 PREFETCHES SAME FILL-ORIGIN LEVEL: 0 DIFFERENT FILL-ORIGIN LEVEL: 0

LLC SPEC fills:          0  NON-SPEC fills:      18654
LLC Test counter :          0
LLC Leapfrog:          0
LLC MSHR merge:          0
LLC TOTAL     ACCESS:   19393823  HIT:    9687185  MISS:    9706638  HIT %:    49.9498  MISS %:    50.0502   MPKI: 48.5332
LLC LOAD      TOTAL       ACCESS:     133025  HIT:        272  MISS:     132753  HIT %:   0.204473  MISS %:    99.7955   MPKI: 0.663765
LLC LOAD      NON_SPEC    ACCESS:      18673  HIT:         19  MISS:      18654  HIT %:   0.101751  MISS %:    99.8982   MPKI: 0.09327
LLC LOAD      SPEC        ACCESS:     114352  HIT:        253  MISS:     114099  HIT %:   0.221247  MISS %:    99.7788   MPKI: 0.570495
LLC RFO       NON_SPEC    ACCESS:    7278967  HIT:     101747  MISS:    7177220  HIT %:    1.39782  MISS %:    98.6022   MPKI: 35.8861
LLC PREFETCH  NON_SPEC    ACCESS:    2263299  HIT:         33  MISS:    2263266  HIT %: 0.00145805  MISS %:    99.9985   MPKI: 11.3163
LLC WRITEBACK NON_SPEC    ACCESS:    7278839  HIT:    7278508  MISS:        331  HIT %:    99.9955  MISS %: 0.00454743   MPKI: 0.001655
LLC CLEAN_EVICTION NON_SPEC    ACCESS:    2383706  HIT:    2277220  MISS:     106486  HIT %:    95.5328  MISS %:    4.46725   MPKI: 0.53243
LLC COMMIT LOAD NON_SPEC    ACCESS:      37084  HIT:      29405  MISS:       7679  HIT %:     79.293  MISS %:     20.707   MPKI: 0.038395
LLC LOAD TRANSLATION NON_SPEC    ACCESS:      18903  HIT:          0  MISS:      18903  HIT %:          0  MISS %:        100   MPKI: 0.094515
LLC PREFETCH  REQUESTED:          0  ISSUED:          0  USEFUL:      29665  USELESS:    2235012
LLC USEFUL LOAD PREFETCHES:      29665 PREFETCH ISSUED TO LOWER LEVEL:    2263266  ACCURACY: 1.31072
LLC TIMELY PREFETCHES:      29665 LATE PREFETCHES: 0 DROPPED PREFETCHES: 0
LLC COMMIT LATE PREFETCHES: 0 NORMAL LATE: 0 MISSED OPPORTUNITY: 0 UNCOVERED: 132753
LLC PREFETCHES SAME FILL-ORIGIN LEVEL: 0 DIFFERENT FILL-ORIGIN LEVEL: 0
LLC AVERAGE MISS LATENCY: 652.631 cycles
LLC AVERAGE MISS LATENCY LOAD: 771.367 cycles
LLC AVERAGE MISS LATENCY PREFETCH: 754.898 cycles
LLC AVERAGE MSHR OCCUPANCY: 12.1743
LLC MSHR FULL: 0
LLC RQ	ACCESS:    7468098	FORWARD:          0	MERGED:          0	TO_CACHE:    7467990
LLC WQ	ACCESS:    9662545	FORWARD:        108	MERGED:          0	TO_CACHE:    9662545
LLC PQ	ACCESS:    2263299	FORWARD:          0	MERGED:          0	TO_CACHE:    2263299

LLC Dense regions hint to LLC: 0

RAW hits: 2235293
Loads Generated: 52231474
Loads sent to L1D: 49996181
Stores Generated: 36944939
Stores sent to L1D: 36944937
Major fault: 0 Minor fault: 96650
Allocated PAGES: 96650
Total Load insts: 61534136
Total Non-spec loads: 3455245
Percentage of speculative loads: 94.3848

LeapFrogging counter: 26977410
Commit hits: 18380283 miss: 28528674
Commit hit %: 39.1829 miss %: 60.8171
Commits not translated: 0
Loads retired: 2428026
Stores retired: 36944937
Cache fills: 2428026
L1D response latency: 160.617 cycles
Load retirement latency: 756.185 cycles
OOO test counter: 0
Discarded buffer inserts: 18380283 hits: 427958 hit %: 2.32835
Filter prediction accuracy: -nan
[Bingo] PHT Access: 75037
[Bingo] PHT Hit PC+Addr: 429
[Bingo] PHT Hit PC+Offs: 74589
[Bingo] PHT Miss: 19
[Bingo] Prefetch PC+Addr: 0
[Bingo] Prefetch PC+Offs: 0
[Bingo] Useful PC+Addr: 0
[Bingo] Useful PC+Offs: 0
[Bingo] Useless PC+Addr: 0
[Bingo] Useless PC+Offs: 0
[Bingo] L1 Prefetch per Region: 0
[Bingo] L2 Prefetch per Region: 31.9417
[Bingo] L3 Prefetch per Region: 0
[Bingo] No Prefetch per Region: 0.0582793
[Bingo] Number of Voters Mean: 15.9957
[Bingo] Number of Voters SD: 7.85321
PHT read accesses: 1195871
PHT write accesses: 74986
AT read accesses: 2427078
AT write accesses: 2427902
FT read accesses: 225109
FT write accesses: 75037
PS read accesses: 417387
PS write accesses: 75018
PHT tag read accesses: 3590500
PHT tag write accesses: 75415
AT tag read accesses: 196723694
AT tag write accesses: 2502054
FT tag read accesses: 159991025
FT tag write accesses: 225110
PS tag read accesses: 41323964
PS tag write accesses: 492405

DRAM Statistics
 CHANNEL 0
 RQ ROW_BUFFER_HIT:    1305063  ROW_BUFFER_MISS:    8294758
 DBUS_CONGESTED:         10
 WQ ROW_BUFFER_HIT:    2423265  ROW_BUFFER_MISS:    7137243  FULL:       4783

 AVG_CONGESTED_CYCLE: 6
 All warmup complete: 2
Channel 0 Bank busy for read cycles: 0
Channel 0 Bank busy for write cycles: 0
Channel 0
Rank 0
0banks busy for read cycles: 78319772
0banks busy for write cycles: 30667
1banks busy for read cycles: 8126241
1banks busy for write cycles: 3504864
2banks busy for read cycles: 9766478
2banks busy for write cycles: 3182030
3banks busy for read cycles: 16238974
3banks busy for write cycles: 2931131
4banks busy for read cycles: 21297194
4banks busy for write cycles: 2852314
5banks busy for read cycles: 41876948
5banks busy for write cycles: 2897033
6banks busy for read cycles: 46332741
6banks busy for write cycles: 3316854
7banks busy for read cycles: 44838825
7banks busy for write cycles: 13008888
8banks busy for read cycles: 66706413
8banks busy for write cycles: 169606562

CPU 0 Branch Prediction Accuracy: 97.0951% MPKI: 0.52429 Average ROB Occupancy at Mispredict: 171.545
Branch types
NOT_BRANCH: 196390039 98.195%
BRANCH_DIRECT_JUMP: 590927 0.295463%
BRANCH_INDIRECT: 0 0%
BRANCH_CONDITIONAL: 3018804 1.5094%
BRANCH_DIRECT_CALL: 0 0%
BRANCH_INDIRECT_CALL: 0 0%
BRANCH_RETURN: 0 0%
BRANCH_OTHER: 0 0%

DRAM PAGES: 1048576
Allocated PAGES: 96650
