
*** ChampSim Multicore Out-of-Order Simulator ***

Warmup Instructions: 50000000
Simulation Instructions: 200000000
Number of CPUs: 1
LLC sets: 2048
LLC ways: 16
L0D sets: 16
L0D ways: 2
ROB size: 352
LQ size: 128
SQ size: 72
Secure Berti: OFF
Berti: OFF
Berti Fill: OFF
On commit prefetching: OFF
Hit-based filter: OFF
Time-guarding: ON
Free-slotting: ON
Leap-frogging: ON
Train prefetcher on L0D bypass: OFF
No translation penalty for prefetchers: OFF
Prefetch to L0D only: OFF
Prefetch to L1D only: OFF
Clean evictions: ON
Commit loads: ON
Commit write: ON
Fill commit loads to L2C, LLC: ON
DRAM IO FREQUENCY: 6400
ROB SIZE: 352
Off-chip DRAM Size: 4096 MB Channels: 1 Width: 64-bit Data Rate: 6400 MT/s
CPU 0 runs /home/sumon/secure_berti/GhostMinion/../../traces/spec/623.xalancbmk_s-165B.champsimtrace.xz
.xz
BTB has LRU replacement policy
ITLB has LRU replacement policy
DTLB has LRU replacement policy
STLB has LRU replacement policy
L1I has LRU replacement policy
L0D has LRU replacement policy
L1D has LRU replacement policy
Bingo PHT WAYS: 16 and PHT_SIZE: 16384
L2C has LRU replacement policy
LLC has LRU replacement policy
Heartbeat CPU 0 instructions: 10000000 cycles: 3503349 heartbeat IPC: 2.85441 cumulative IPC: 2.85441 (Simulation time: 0 hr 1 min 2 sec) 
Heartbeat CPU 0 instructions: 20000001 cycles: 7011648 heartbeat IPC: 2.85038 cumulative IPC: 2.8524 (Simulation time: 0 hr 2 min 5 sec) 
Heartbeat CPU 0 instructions: 30000000 cycles: 10492721 heartbeat IPC: 2.87268 cumulative IPC: 2.85912 (Simulation time: 0 hr 3 min 7 sec) 
Heartbeat CPU 0 instructions: 40000003 cycles: 13987054 heartbeat IPC: 2.86178 cumulative IPC: 2.85979 (Simulation time: 0 hr 4 min 9 sec) 
Heartbeat CPU 0 instructions: 50000001 cycles: 17505311 heartbeat IPC: 2.84232 cumulative IPC: 2.85628 (Simulation time: 0 hr 5 min 11 sec) 

Warmup complete CPU 0 instructions: 50000001 cycles: 17505311 (Simulation time: 0 hr 5 min 11 sec) 

Heartbeat CPU 0 instructions: 60000003 cycles: 28947171 heartbeat IPC: 0.873984 cumulative IPC: 0.873984 (Simulation time: 0 hr 6 min 33 sec) 
Heartbeat CPU 0 instructions: 70000001 cycles: 40387463 heartbeat IPC: 0.874103 cumulative IPC: 0.874044 (Simulation time: 0 hr 7 min 56 sec) 
Heartbeat CPU 0 instructions: 80000001 cycles: 51823815 heartbeat IPC: 0.874405 cumulative IPC: 0.874164 (Simulation time: 0 hr 9 min 18 sec) 
Heartbeat CPU 0 instructions: 90000002 cycles: 63262749 heartbeat IPC: 0.874207 cumulative IPC: 0.874175 (Simulation time: 0 hr 10 min 40 sec) 
Heartbeat CPU 0 instructions: 100000001 cycles: 74701068 heartbeat IPC: 0.874254 cumulative IPC: 0.874191 (Simulation time: 0 hr 12 min 2 sec) 
Heartbeat CPU 0 instructions: 110000000 cycles: 86147009 heartbeat IPC: 0.873672 cumulative IPC: 0.874104 (Simulation time: 0 hr 13 min 24 sec) 
Heartbeat CPU 0 instructions: 120000000 cycles: 97580996 heartbeat IPC: 0.874586 cumulative IPC: 0.874173 (Simulation time: 0 hr 14 min 46 sec) 
Heartbeat CPU 0 instructions: 130000002 cycles: 109018197 heartbeat IPC: 0.87434 cumulative IPC: 0.874194 (Simulation time: 0 hr 16 min 8 sec) 
Heartbeat CPU 0 instructions: 140000002 cycles: 120453926 heartbeat IPC: 0.874452 cumulative IPC: 0.874223 (Simulation time: 0 hr 17 min 30 sec) 
Heartbeat CPU 0 instructions: 150000002 cycles: 131889945 heartbeat IPC: 0.87443 cumulative IPC: 0.874243 (Simulation time: 0 hr 18 min 53 sec) 
Heartbeat CPU 0 instructions: 160000000 cycles: 143325961 heartbeat IPC: 0.87443 cumulative IPC: 0.87426 (Simulation time: 0 hr 20 min 15 sec) 
Heartbeat CPU 0 instructions: 170000002 cycles: 154762661 heartbeat IPC: 0.874378 cumulative IPC: 0.87427 (Simulation time: 0 hr 21 min 38 sec) 
Heartbeat CPU 0 instructions: 180000002 cycles: 166201944 heartbeat IPC: 0.874181 cumulative IPC: 0.874263 (Simulation time: 0 hr 23 min 0 sec) 
Heartbeat CPU 0 instructions: 190000002 cycles: 177638743 heartbeat IPC: 0.874371 cumulative IPC: 0.874271 (Simulation time: 0 hr 24 min 22 sec) 
Heartbeat CPU 0 instructions: 200000002 cycles: 189074427 heartbeat IPC: 0.874456 cumulative IPC: 0.874283 (Simulation time: 0 hr 25 min 45 sec) 
Heartbeat CPU 0 instructions: 210000003 cycles: 200513636 heartbeat IPC: 0.874186 cumulative IPC: 0.874277 (Simulation time: 0 hr 27 min 7 sec) 
Heartbeat CPU 0 instructions: 220000000 cycles: 212202247 heartbeat IPC: 0.855533 cumulative IPC: 0.873152 (Simulation time: 0 hr 28 min 28 sec) 
Heartbeat CPU 0 instructions: 230000001 cycles: 223522007 heartbeat IPC: 0.883411 cumulative IPC: 0.873716 (Simulation time: 0 hr 29 min 47 sec) 
Heartbeat CPU 0 instructions: 240000002 cycles: 234628810 heartbeat IPC: 0.900349 cumulative IPC: 0.875078 (Simulation time: 0 hr 31 min 6 sec) 
Heartbeat CPU 0 instructions: 250000002 cycles: 245660959 heartbeat IPC: 0.906442 cumulative IPC: 0.876595 (Simulation time: 0 hr 32 min 25 sec) 
Finished CPU 0 instructions: 200000001 cycles: 228155648 cumulative IPC: 0.876595 (Simulation time: 0 hr 32 min 25 sec) 
 Instruction ID: 250000092

ChampSim completed all CPUs

Region of Interest Statistics

CPU 0 cumulative IPC: 0.876595 instructions: 200000001 cycles: 228155648
ITLB SPEC fills:          0  NON-SPEC fills:          0
ITLB Test counter :          0
ITLB Leapfrog:          0
ITLB MSHR merge:          0
ITLB TOTAL     ACCESS:   28385627  HIT:   28385616  MISS:         11  HIT %:        100  MISS %: 3.8752e-05   MPKI: 5.5e-05
ITLB LOAD TRANSLATION NON_SPEC    ACCESS:   28385627  HIT:   28385616  MISS:         11  HIT %:        100  MISS %: 3.8752e-05   MPKI: 5.5e-05
ITLB PREFETCH  REQUESTED:          0  ISSUED:          0  USEFUL:          0  USELESS:          0
ITLB USEFUL LOAD PREFETCHES:          0 PREFETCH ISSUED TO LOWER LEVEL:          0  ACCURACY: -nan
ITLB TIMELY PREFETCHES:          0 LATE PREFETCHES: 0 DROPPED PREFETCHES: 0
ITLB COMMIT LATE PREFETCHES: 0 NORMAL LATE: 0 MISSED OPPORTUNITY: 0 UNCOVERED: 0
ITLB PREFETCHES SAME FILL-ORIGIN LEVEL: 0 DIFFERENT FILL-ORIGIN LEVEL: 0
ITLB AVERAGE MISS LATENCY: 364 cycles
ITLB AVERAGE MISS LATENCY LOAD: -nan cycles
ITLB AVERAGE MISS LATENCY PREFETCH: -nan cycles
ITLB AVERAGE MSHR OCCUPANCY: 0
ITLB MSHR FULL: 0
ITLB RQ	ACCESS:   37104591	FORWARD:          0	MERGED:    8718965	TO_CACHE:   28385626

DTLB SPEC fills:          0  NON-SPEC fills:          0
DTLB Test counter :          0
DTLB Leapfrog:          0
DTLB MSHR merge:          0
DTLB TOTAL     ACCESS:   41049215  HIT:   40983501  MISS:      65714  HIT %:    99.8399  MISS %:   0.160086   MPKI: 0.32857
DTLB LOAD TRANSLATION NON_SPEC    ACCESS:   41049215  HIT:   40983501  MISS:      65714  HIT %:    99.8399  MISS %:   0.160086   MPKI: 0.32857
DTLB PREFETCH  REQUESTED:          0  ISSUED:          0  USEFUL:          0  USELESS:          0
DTLB USEFUL LOAD PREFETCHES:          0 PREFETCH ISSUED TO LOWER LEVEL:          0  ACCURACY: -nan
DTLB TIMELY PREFETCHES:          0 LATE PREFETCHES: 0 DROPPED PREFETCHES: 0
DTLB COMMIT LATE PREFETCHES: 0 NORMAL LATE: 0 MISSED OPPORTUNITY: 0 UNCOVERED: 0
DTLB PREFETCHES SAME FILL-ORIGIN LEVEL: 0 DIFFERENT FILL-ORIGIN LEVEL: 0
DTLB AVERAGE MISS LATENCY: 13.0984 cycles
DTLB AVERAGE MISS LATENCY LOAD: -nan cycles
DTLB AVERAGE MISS LATENCY PREFETCH: -nan cycles
DTLB AVERAGE MSHR OCCUPANCY: 0.000864834
DTLB MSHR FULL: 0
DTLB RQ	ACCESS:   44663747	FORWARD:          0	MERGED:    3614266	TO_CACHE:   41049481

STLB SPEC fills:          0  NON-SPEC fills:          0
STLB Test counter :          0
STLB Leapfrog:          0
STLB MSHR merge:          0
STLB TOTAL     ACCESS:      65725  HIT:      64978  MISS:        747  HIT %:    98.8634  MISS %:    1.13655   MPKI: 0.003735
STLB LOAD TRANSLATION NON_SPEC    ACCESS:      65725  HIT:      64978  MISS:        747  HIT %:    98.8634  MISS %:    1.13655   MPKI: 0.003735
STLB PREFETCH  REQUESTED:          0  ISSUED:          0  USEFUL:          0  USELESS:          0
STLB USEFUL LOAD PREFETCHES:          0 PREFETCH ISSUED TO LOWER LEVEL:          0  ACCURACY: -nan
STLB TIMELY PREFETCHES:          0 LATE PREFETCHES: 0 DROPPED PREFETCHES: 0
STLB COMMIT LATE PREFETCHES: 0 NORMAL LATE: 0 MISSED OPPORTUNITY: 0 UNCOVERED: 0
STLB PREFETCHES SAME FILL-ORIGIN LEVEL: 0 DIFFERENT FILL-ORIGIN LEVEL: 0
STLB AVERAGE MISS LATENCY: 365.708 cycles
STLB AVERAGE MISS LATENCY LOAD: -nan cycles
STLB AVERAGE MISS LATENCY PREFETCH: -nan cycles
STLB AVERAGE MSHR OCCUPANCY: 0.00257132
STLB MSHR FULL: 0
STLB RQ	ACCESS:      65725	FORWARD:          0	MERGED:          0	TO_CACHE:      65725

STLB Hit, L1D data hit: 0
STLB Hit, L2C data hit: 0
STLB Hit, LLC data hit: 0
STLB Hit, LLC data miss: 0
STLB STLB hints to L2: 0
L0D SPEC fills:   25307418  NON-SPEC fills:          0
L0D TimeGuard Request with older TS:     145586 Restricted eviction:      57443 read:       7556
L0D Test counter :          0
L0D Leapfrog:          0
L0D MSHR merge:    3097134
L0D TOTAL     ACCESS:   38599519  HIT:    7606287  MISS:   30993232  HIT %:    19.7057  MISS %:    80.2943   MPKI: 154.966
L0D LOAD      TOTAL       ACCESS:   38599519  HIT:    7606287  MISS:   30993232  HIT %:    19.7057  MISS %:    80.2943   MPKI: 154.966
L0D LOAD      NON_SPEC    ACCESS:    5633992  HIT:       5621  MISS:    5628371  HIT %:  0.0997694  MISS %:    99.9002   MPKI: 28.1419
L0D LOAD      SPEC        ACCESS:   32965527  HIT:    7600666  MISS:   25364861  HIT %:    23.0564  MISS %:    76.9436   MPKI: 126.824
L0D PREFETCH  REQUESTED:          0  ISSUED:          0  USEFUL:          0  USELESS:          0
L0D USEFUL LOAD PREFETCHES:          0 PREFETCH ISSUED TO LOWER LEVEL:          0  ACCURACY: -nan
L0D TIMELY PREFETCHES:          0 LATE PREFETCHES: 0 DROPPED PREFETCHES: 0
L0D COMMIT LATE PREFETCHES: 0 NORMAL LATE: 0 MISSED OPPORTUNITY: 0 UNCOVERED: 30993232
L0D PREFETCHES SAME FILL-ORIGIN LEVEL: 0 DIFFERENT FILL-ORIGIN LEVEL: 0
L0D AVERAGE MISS LATENCY: 7.31068 cycles
L0D AVERAGE MISS LATENCY LOAD: 7.31068 cycles
L0D AVERAGE MISS LATENCY PREFETCH: -nan cycles
L0D AVERAGE MSHR OCCUPANCY: 0.61068
L0D MSHR FULL: 0
L0D RQ	ACCESS:   58954103	FORWARD:          0	MERGED:   17257451	TO_CACHE:   41696652
L0D WQ	ACCESS:    2967095	FORWARD:          0	MERGED:          0	TO_CACHE:    2967095

L1D SPEC fills:          0  NON-SPEC fills:    1058292
L1D Test counter :          0
L1D Leapfrog:          0
L1D MSHR merge:        449
L1D TOTAL     ACCESS:   72825576  HIT:   65889229  MISS:    6936347  HIT %:    90.4754  MISS %:     9.5246   MPKI: 34.6817
L1D LOAD      TOTAL       ACCESS:   30992783  HIT:   26991577  MISS:    4001206  HIT %:    87.0899  MISS %:    12.9101   MPKI: 20.006
L1D LOAD      NON_SPEC    ACCESS:    5628311  HIT:    4570019  MISS:    1058292  HIT %:     81.197  MISS %:     18.803   MPKI: 5.29146
L1D LOAD      SPEC        ACCESS:   25364472  HIT:   22421558  MISS:    2942914  HIT %:    88.3975  MISS %:    11.6025   MPKI: 14.7146
L1D RFO       NON_SPEC    ACCESS:    2946897  HIT:    2940751  MISS:       6146  HIT %:    99.7914  MISS %:   0.208558   MPKI: 0.03073
L1D COMMIT LOAD NON_SPEC    ACCESS:   13667455  HIT:   13665164  MISS:       2291  HIT %:    99.9832  MISS %:  0.0167624   MPKI: 0.011455
L1D COMMIT WRITE NON_SPEC    ACCESS:   25218441  HIT:   22291737  MISS:    2926704  HIT %:    88.3946  MISS %:    11.6054   MPKI: 14.6335
L1D PREFETCH  REQUESTED:          0  ISSUED:          0  USEFUL:          0  USELESS:          0
L1D USEFUL LOAD PREFETCHES:          0 PREFETCH ISSUED TO LOWER LEVEL:          0  ACCURACY: -nan
L1D TIMELY PREFETCHES:          0 LATE PREFETCHES: 0 DROPPED PREFETCHES: 0
L1D COMMIT LATE PREFETCHES: 0 NORMAL LATE: 0 MISSED OPPORTUNITY: 0 UNCOVERED: 4001206
L1D PREFETCHES SAME FILL-ORIGIN LEVEL: 0 DIFFERENT FILL-ORIGIN LEVEL: 0
L1D AVERAGE MISS LATENCY: 10.2685 cycles
L1D AVERAGE MISS LATENCY LOAD: 17.6746 cycles
L1D AVERAGE MISS LATENCY PREFETCH: -nan cycles
L1D AVERAGE MSHR OCCUPANCY: 0.142
L1D MSHR FULL: 0
L1D RQ	ACCESS:   58931062	FORWARD:          0	MERGED:   14267622	TO_CACHE:   44662690
L1D WQ	ACCESS:   28185539	FORWARD:        750	MERGED:      11228	TO_CACHE:   28174311

L1D UNIQUE REGIONS ACCESSED: 0
L1D REGIONS CONFLICTS: 0
L1D Cross Page Prefetch Requests: 0
L1D Same Page Prefetch Requests: 0
L1D ROI Sum of L1D PQ occupancy: 0
L1D PREFETCHES PUSHED FROM L2C: 0
L1I SPEC fills:          0  NON-SPEC fills:          0
L1I Test counter :          0
L1I Leapfrog:          0
L1I MSHR merge:          8
L1I TOTAL     ACCESS:   37104583  HIT:   37104491  MISS:         92  HIT %:    99.9998  MISS %: 0.000247948   MPKI: 0.00046
L1I LOAD      TOTAL       ACCESS:   37104583  HIT:   37104491  MISS:         92  HIT %:    99.9998  MISS %: 0.000247948   MPKI: 0.00046
L1I LOAD      NON_SPEC    ACCESS:   37104583  HIT:   37104491  MISS:         92  HIT %:    99.9998  MISS %: 0.000247948   MPKI: 0.00046
L1I PREFETCH  REQUESTED:          0  ISSUED:          0  USEFUL:          0  USELESS:          0
L1I USEFUL LOAD PREFETCHES:          0 PREFETCH ISSUED TO LOWER LEVEL:          0  ACCURACY: -nan
L1I TIMELY PREFETCHES:          0 LATE PREFETCHES: 0 DROPPED PREFETCHES: 0
L1I COMMIT LATE PREFETCHES: 0 NORMAL LATE: 0 MISSED OPPORTUNITY: 0 UNCOVERED: 92
L1I PREFETCHES SAME FILL-ORIGIN LEVEL: 0 DIFFERENT FILL-ORIGIN LEVEL: 0
L1I AVERAGE MISS LATENCY: 203.141 cycles
L1I AVERAGE MISS LATENCY LOAD: 203.141 cycles
L1I AVERAGE MISS LATENCY PREFETCH: -nan cycles
L1I AVERAGE MSHR OCCUPANCY: 9.43279e-07
L1I MSHR FULL: 0
L1I RQ	ACCESS:   73298882	FORWARD:          0	MERGED:   36194291	TO_CACHE:   37104591

BTB SPEC fills:          0  NON-SPEC fills:          0
BTB Test counter :          0
BTB Leapfrog:          0
BTB MSHR merge:          0
BTB TOTAL     ACCESS:   32869653  HIT:   32861236  MISS:       8417  HIT %:    99.9744  MISS %:  0.0256072   MPKI: 0.042085
BTB BRANCH_DIRECT_JUMP	ACCESS:      10018  HIT:       9991  MISS:         27
BTB BRANCH_INDIRECT	ACCESS:          0  HIT:          0  MISS:          0
BTB BRANCH_CONDITIONAL	ACCESS:   30064981  HIT:   30064870  MISS:        111
BTB BRANCH_DIRECT_CALL	ACCESS:     706558  HIT:     706534  MISS:         24
BTB BRANCH_INDIRECT_CALL	ACCESS:     690770  HIT:     690753  MISS:         17
BTB BRANCH_RETURN	ACCESS:    1397326  HIT:    1389088  MISS:       8238
BTB BRANCH_OTHER ACCESS:          0  HIT:          0  MISS:          0

L2C SPEC fills:          0  NON-SPEC fills:      62577
L2C Test counter :          0
L2C Leapfrog:          0
L2C MSHR merge:      79907
L2C TOTAL     ACCESS:   10350998  HIT:    6780488  MISS:    3570510  HIT %:    65.5056  MISS %:    34.4944   MPKI: 17.8525
L2C LOAD      TOTAL       ACCESS:    4001297  HIT:    3732592  MISS:     268705  HIT %:    93.2846  MISS %:    6.71545   MPKI: 1.34352
L2C LOAD      NON_SPEC    ACCESS:    1058384  HIT:     995715  MISS:      62669  HIT %:    94.0788  MISS %:     5.9212   MPKI: 0.313345
L2C LOAD      SPEC        ACCESS:    2942913  HIT:    2736877  MISS:     206036  HIT %:    92.9989  MISS %:    7.00109   MPKI: 1.03018
L2C RFO       NON_SPEC    ACCESS:       6146  HIT:       4385  MISS:       1761  HIT %:    71.3472  MISS %:    28.6528   MPKI: 0.008805
L2C PREFETCH  NON_SPEC    ACCESS:    3225650  HIT:     130292  MISS:    3095358  HIT %:    4.03925  MISS %:    95.9608   MPKI: 15.4768
L2C WRITEBACK NON_SPEC    ACCESS:       6685  HIT:       6685  MISS:          0  HIT %:        100  MISS %:          0   MPKI: 0
L2C CLEAN_EVICTION NON_SPEC    ACCESS:    3105204  HIT:    2902056  MISS:     203148  HIT %:    93.4578  MISS %:    6.54218   MPKI: 1.01574
L2C COMMIT LOAD NON_SPEC    ACCESS:       2291  HIT:       1412  MISS:        879  HIT %:    61.6325  MISS %:    38.3675   MPKI: 0.004395
L2C LOAD TRANSLATION NON_SPEC    ACCESS:       3725  HIT:       3066  MISS:        659  HIT %:    82.3087  MISS %:    17.6913   MPKI: 0.003295
L2C PREFETCH  REQUESTED:    3373791  ISSUED:    3373791  USEFUL:    2916297  USELESS:     178177
L2C USEFUL LOAD PREFETCHES:    2916297 PREFETCH ISSUED TO LOWER LEVEL:    3175265  ACCURACY: 91.8442
L2C TIMELY PREFETCHES:    2916297 LATE PREFETCHES: 79907 DROPPED PREFETCHES: 0
L2C COMMIT LATE PREFETCHES: 0 NORMAL LATE: 79907 MISSED OPPORTUNITY: 0 UNCOVERED: 188798
L2C PREFETCHES SAME FILL-ORIGIN LEVEL: 3175265 DIFFERENT FILL-ORIGIN LEVEL: 0
L2C AVERAGE MISS LATENCY: 146.023 cycles
L2C AVERAGE MISS LATENCY LOAD: 81.1519 cycles
L2C AVERAGE MISS LATENCY PREFETCH: 161.232 cycles
L2C AVERAGE MSHR OCCUPANCY: 1.15102
L2C MSHR FULL: 0
L2C RQ	ACCESS:    4013459	FORWARD:          0	MERGED:          0	TO_CACHE:    4013459
L2C WQ	ACCESS:    3111889	FORWARD:          0	MERGED:          0	TO_CACHE:    3111889
L2C PQ	ACCESS:    3373791	FORWARD:          0	MERGED:          0	TO_CACHE:    3373791

L2C Instructions Evicting Data 92
L2C Translations Evicting Data 659
L2C Data Evicting Data 3160159
L2C Instructions Evicting Instructions 0
L2C Translations Evicting Instructions 0
L2C Data Evicting Instructions 50
L2C Instructions Evicting Translations 0
L2C Translations Evicting Translations 0
L2C Data Evicting Translations 366
L2C Dense regions hint from L2: 0
PSCL5 SPEC fills:          0  NON-SPEC fills:          0
PSCL5 Test counter :          0
PSCL5 Leapfrog:          0
PSCL5 MSHR merge:          0
PSCL5 TOTAL     ACCESS:          0  HIT:          0  MISS:          0  HIT %:       -nan  MISS %:       -nan   MPKI: 0
PSCL5 PREFETCH  REQUESTED:          0  ISSUED:          0  USEFUL:          0  USELESS:          0
PSCL5 USEFUL LOAD PREFETCHES:          0 PREFETCH ISSUED TO LOWER LEVEL:          0  ACCURACY: -nan
PSCL5 TIMELY PREFETCHES:          0 LATE PREFETCHES: 0 DROPPED PREFETCHES: 0
PSCL5 COMMIT LATE PREFETCHES: 0 NORMAL LATE: 0 MISSED OPPORTUNITY: 0 UNCOVERED: 0
PSCL5 PREFETCHES SAME FILL-ORIGIN LEVEL: 0 DIFFERENT FILL-ORIGIN LEVEL: 0

PSCL4 SPEC fills:          0  NON-SPEC fills:          0
PSCL4 Test counter :          0
PSCL4 Leapfrog:          0
PSCL4 MSHR merge:          0
PSCL4 TOTAL     ACCESS:          0  HIT:          0  MISS:          0  HIT %:       -nan  MISS %:       -nan   MPKI: 0
PSCL4 PREFETCH  REQUESTED:          0  ISSUED:          0  USEFUL:          0  USELESS:          0
PSCL4 USEFUL LOAD PREFETCHES:          0 PREFETCH ISSUED TO LOWER LEVEL:          0  ACCURACY: -nan
PSCL4 TIMELY PREFETCHES:          0 LATE PREFETCHES: 0 DROPPED PREFETCHES: 0
PSCL4 COMMIT LATE PREFETCHES: 0 NORMAL LATE: 0 MISSED OPPORTUNITY: 0 UNCOVERED: 0
PSCL4 PREFETCHES SAME FILL-ORIGIN LEVEL: 0 DIFFERENT FILL-ORIGIN LEVEL: 0

PSCL3 SPEC fills:          0  NON-SPEC fills:          0
PSCL3 Test counter :          0
PSCL3 Leapfrog:          0
PSCL3 MSHR merge:          0
PSCL3 TOTAL     ACCESS:          0  HIT:          0  MISS:          0  HIT %:       -nan  MISS %:       -nan   MPKI: 0
PSCL3 PREFETCH  REQUESTED:          0  ISSUED:          0  USEFUL:          0  USELESS:          0
PSCL3 USEFUL LOAD PREFETCHES:          0 PREFETCH ISSUED TO LOWER LEVEL:          0  ACCURACY: -nan
PSCL3 TIMELY PREFETCHES:          0 LATE PREFETCHES: 0 DROPPED PREFETCHES: 0
PSCL3 COMMIT LATE PREFETCHES: 0 NORMAL LATE: 0 MISSED OPPORTUNITY: 0 UNCOVERED: 0
PSCL3 PREFETCHES SAME FILL-ORIGIN LEVEL: 0 DIFFERENT FILL-ORIGIN LEVEL: 0

PSCL2 SPEC fills:          0  NON-SPEC fills:          0
PSCL2 Test counter :          0
PSCL2 Leapfrog:          0
PSCL2 MSHR merge:          0
PSCL2 TOTAL     ACCESS:          0  HIT:          0  MISS:          0  HIT %:       -nan  MISS %:       -nan   MPKI: 0
PSCL2 PREFETCH  REQUESTED:          0  ISSUED:          0  USEFUL:          0  USELESS:          0
PSCL2 USEFUL LOAD PREFETCHES:          0 PREFETCH ISSUED TO LOWER LEVEL:          0  ACCURACY: -nan
PSCL2 TIMELY PREFETCHES:          0 LATE PREFETCHES: 0 DROPPED PREFETCHES: 0
PSCL2 COMMIT LATE PREFETCHES: 0 NORMAL LATE: 0 MISSED OPPORTUNITY: 0 UNCOVERED: 0
PSCL2 PREFETCHES SAME FILL-ORIGIN LEVEL: 0 DIFFERENT FILL-ORIGIN LEVEL: 0

LLC SPEC fills:          0  NON-SPEC fills:      20406
LLC Test counter :          0
LLC Leapfrog:          0
LLC MSHR merge:          0
LLC TOTAL     ACCESS:    5827095  HIT:    3343735  MISS:    2483360  HIT %:    57.3825  MISS %:    42.6175   MPKI: 12.4168
LLC LOAD      TOTAL       ACCESS:     188798  HIT:     132270  MISS:      56528  HIT %:     70.059  MISS %:     29.941   MPKI: 0.28264
LLC LOAD      NON_SPEC    ACCESS:      32261  HIT:      11763  MISS:      20498  HIT %:     36.462  MISS %:     63.538   MPKI: 0.10249
LLC LOAD      SPEC        ACCESS:     156537  HIT:     120507  MISS:      36030  HIT %:    76.9831  MISS %:    23.0169   MPKI: 0.18015
LLC RFO       NON_SPEC    ACCESS:       1761  HIT:          1  MISS:       1760  HIT %:  0.0567859  MISS %:    99.9432   MPKI: 0.0088
LLC PREFETCH  NON_SPEC    ACCESS:    3175265  HIT:     868905  MISS:    2306360  HIT %:    27.3648  MISS %:    72.6352   MPKI: 11.5318
LLC WRITEBACK NON_SPEC    ACCESS:       1058  HIT:       1058  MISS:          0  HIT %:        100  MISS %:          0   MPKI: 0
LLC CLEAN_EVICTION NON_SPEC    ACCESS:    2458675  HIT:    2340957  MISS:     117718  HIT %:    95.2121  MISS %:    4.78786   MPKI: 0.58859
LLC COMMIT LOAD NON_SPEC    ACCESS:        879  HIT:        468  MISS:        411  HIT %:    53.2423  MISS %:    46.7577   MPKI: 0.002055
LLC LOAD TRANSLATION NON_SPEC    ACCESS:        659  HIT:         76  MISS:        583  HIT %:    11.5326  MISS %:    88.4674   MPKI: 0.002915
LLC PREFETCH  REQUESTED:          0  ISSUED:          0  USEFUL:        762  USELESS:    2308687
LLC USEFUL LOAD PREFETCHES:        762 PREFETCH ISSUED TO LOWER LEVEL:    2306360  ACCURACY: 0.0330391
LLC TIMELY PREFETCHES:        762 LATE PREFETCHES: 0 DROPPED PREFETCHES: 0
LLC COMMIT LATE PREFETCHES: 0 NORMAL LATE: 0 MISSED OPPORTUNITY: 0 UNCOVERED: 56528
LLC PREFETCHES SAME FILL-ORIGIN LEVEL: 0 DIFFERENT FILL-ORIGIN LEVEL: 0
LLC AVERAGE MISS LATENCY: 171.872 cycles
LLC AVERAGE MISS LATENCY LOAD: 148.441 cycles
LLC AVERAGE MISS LATENCY PREFETCH: 181.25 cycles
LLC AVERAGE MSHR OCCUPANCY: 0.42428
LLC MSHR FULL: 0
LLC RQ	ACCESS:     192097	FORWARD:          0	MERGED:          0	TO_CACHE:     192097
LLC WQ	ACCESS:    2459733	FORWARD:          0	MERGED:          0	TO_CACHE:    2459733
LLC PQ	ACCESS:    3175265	FORWARD:          0	MERGED:          0	TO_CACHE:    3175265

LLC Dense regions hint to LLC: 0

RAW hits: 11170
Loads Generated: 58965275
Loads sent to L1D: 58954103
Stores Generated: 2967094
Stores sent to L1D: 2967095
Major fault: 0 Minor fault: 1462
Allocated PAGES: 1462
Total Load insts: 73705034
Total Non-spec loads: 6019253
Percentage of speculative loads: 91.8333

LeapFrogging counter: 0
Commit hits: 25218444 miss: 27937831
Commit hit %: 47.4421 miss %: 52.5579
Commits not translated: 0
Loads retired: 4001206
Stores retired: 2967095
Cache fills: 4001206
L1D response latency: 17.6746 cycles
Load retirement latency: 34.7371 cycles
OOO test counter: 0
Discarded buffer inserts: 25218444 hits: 15928 hit %: 0.0631601
Filter prediction accuracy: -nan
[Bingo] PHT Access: 115910
[Bingo] PHT Hit PC+Addr: 8918
[Bingo] PHT Hit PC+Offs: 105357
[Bingo] PHT Miss: 1635
[Bingo] Prefetch PC+Addr: 0
[Bingo] Prefetch PC+Offs: 0
[Bingo] Useful PC+Addr: 0
[Bingo] Useful PC+Offs: 0
[Bingo] Useless PC+Addr: 0
[Bingo] Useless PC+Offs: 0
[Bingo] L1 Prefetch per Region: 0
[Bingo] L2 Prefetch per Region: 30.5568
[Bingo] L3 Prefetch per Region: 0
[Bingo] No Prefetch per Region: 1.4432
[Bingo] Number of Voters Mean: 15.8753
[Bingo] Number of Voters SD: 8.78395
PHT read accesses: 1746949
PHT write accesses: 114213
AT read accesses: 3879154
AT write accesses: 3993126
FT read accesses: 356991
FT write accesses: 115910
PS read accesses: 419221
PS write accesses: 114275
PHT tag read accesses: 5279381
PHT tag write accesses: 123131
AT tag read accesses: 123331237
AT tag write accesses: 3993367
FT tag read accesses: 61625698
FT tag write accesses: 352306
PS tag read accesses: 67804278
PS tag write accesses: 533306

DRAM Statistics
 CHANNEL 0
 RQ ROW_BUFFER_HIT:    1491371  ROW_BUFFER_MISS:     874271
 DBUS_CONGESTED:       1563
 WQ ROW_BUFFER_HIT:     378349  ROW_BUFFER_MISS:    1259787  FULL:          0

 AVG_CONGESTED_CYCLE: 4
 All warmup complete: 2
Channel 0 Bank busy for read cycles: 0
Channel 0 Bank busy for write cycles: 0
Channel 0
Rank 0
0banks busy for read cycles: 145365754
0banks busy for write cycles: 127200
1banks busy for read cycles: 3366836
1banks busy for write cycles: 8235932
2banks busy for read cycles: 2085916
2banks busy for write cycles: 5178986
3banks busy for read cycles: 2281863
3banks busy for write cycles: 4357608
4banks busy for read cycles: 2598147
4banks busy for write cycles: 3944162
5banks busy for read cycles: 3275159
5banks busy for write cycles: 4091080
6banks busy for read cycles: 4388537
6banks busy for write cycles: 5027882
7banks busy for read cycles: 6790310
7banks busy for write cycles: 6625416
8banks busy for read cycles: 11343678
8banks busy for write cycles: 9071183

CPU 0 Branch Prediction Accuracy: 99.9889% MPKI: 0.030745 Average ROB Occupancy at Mispredict: 70.1524
Branch types
NOT_BRANCH: 144470849 72.2354%
BRANCH_DIRECT_JUMP: 10018 0.005009%
BRANCH_INDIRECT: 0 0%
BRANCH_CONDITIONAL: 52724213 26.3621%
BRANCH_DIRECT_CALL: 706558 0.353279%
BRANCH_INDIRECT_CALL: 690770 0.345385%
BRANCH_RETURN: 1397326 0.698663%
BRANCH_OTHER: 0 0%

DRAM PAGES: 1048576
Allocated PAGES: 1462
