
*** ChampSim Multicore Out-of-Order Simulator ***

Warmup Instructions: 50000000
Simulation Instructions: 200000000
Number of CPUs: 1
LLC sets: 2048
LLC ways: 16
L0D sets: 16
L0D ways: 2
ROB size: 352
LQ size: 128
SQ size: 72
Secure Berti: OFF
Berti: OFF
Berti Fill: OFF
On commit prefetching: OFF
Hit-based filter: OFF
Time-guarding: ON
Free-slotting: ON
Leap-frogging: ON
Train prefetcher on L0D bypass: OFF
No translation penalty for prefetchers: OFF
Prefetch to L0D only: OFF
Prefetch to L1D only: OFF
Clean evictions: ON
Commit loads: ON
Commit write: ON
Fill commit loads to L2C, LLC: ON
DRAM IO FREQUENCY: 6400
ROB SIZE: 352
Off-chip DRAM Size: 4096 MB Channels: 1 Width: 64-bit Data Rate: 6400 MT/s
CPU 0 runs /home/sumon/secure_berti/GhostMinion/../../traces/spec/623.xalancbmk_s-10B.champsimtrace.xz
.xz
BTB has LRU replacement policy
ITLB has LRU replacement policy
DTLB has LRU replacement policy
STLB has LRU replacement policy
L1I has LRU replacement policy
L0D has LRU replacement policy
L1D has LRU replacement policy
Bingo PHT WAYS: 16 and PHT_SIZE: 16384
L2C has LRU replacement policy
LLC has LRU replacement policy
Heartbeat CPU 0 instructions: 10000003 cycles: 4975134 heartbeat IPC: 2.01 cumulative IPC: 2.01 (Simulation time: 0 hr 1 min 25 sec) 
Heartbeat CPU 0 instructions: 20000000 cycles: 10024798 heartbeat IPC: 1.98033 cumulative IPC: 1.99505 (Simulation time: 0 hr 2 min 55 sec) 
Heartbeat CPU 0 instructions: 30000001 cycles: 15145470 heartbeat IPC: 1.95287 cumulative IPC: 1.98079 (Simulation time: 0 hr 4 min 33 sec) 
Heartbeat CPU 0 instructions: 40000000 cycles: 20223086 heartbeat IPC: 1.96943 cumulative IPC: 1.97794 (Simulation time: 0 hr 6 min 10 sec) 
Heartbeat CPU 0 instructions: 50000000 cycles: 25559580 heartbeat IPC: 1.87389 cumulative IPC: 1.95621 (Simulation time: 0 hr 7 min 55 sec) 

Warmup complete CPU 0 instructions: 50000002 cycles: 25559585 (Simulation time: 0 hr 7 min 55 sec) 

Heartbeat CPU 0 instructions: 60000002 cycles: 59253616 heartbeat IPC: 0.296788 cumulative IPC: 0.296788 (Simulation time: 0 hr 10 min 43 sec) 
Heartbeat CPU 0 instructions: 70000000 cycles: 93167349 heartbeat IPC: 0.294866 cumulative IPC: 0.295824 (Simulation time: 0 hr 13 min 30 sec) 
Heartbeat CPU 0 instructions: 80000003 cycles: 127327002 heartbeat IPC: 0.292743 cumulative IPC: 0.29479 (Simulation time: 0 hr 16 min 20 sec) 
Heartbeat CPU 0 instructions: 90000002 cycles: 158833836 heartbeat IPC: 0.317391 cumulative IPC: 0.300133 (Simulation time: 0 hr 18 min 57 sec) 
Heartbeat CPU 0 instructions: 100000003 cycles: 192845575 heartbeat IPC: 0.294016 cumulative IPC: 0.298889 (Simulation time: 0 hr 21 min 44 sec) 
Heartbeat CPU 0 instructions: 110000000 cycles: 222172520 heartbeat IPC: 0.340983 cumulative IPC: 0.305168 (Simulation time: 0 hr 24 min 11 sec) 
Heartbeat CPU 0 instructions: 120000001 cycles: 252177638 heartbeat IPC: 0.333277 cumulative IPC: 0.30889 (Simulation time: 0 hr 26 min 43 sec) 
Heartbeat CPU 0 instructions: 130000000 cycles: 288713521 heartbeat IPC: 0.273703 cumulative IPC: 0.304005 (Simulation time: 0 hr 29 min 33 sec) 
Heartbeat CPU 0 instructions: 140000003 cycles: 323585850 heartbeat IPC: 0.28676 cumulative IPC: 0.301987 (Simulation time: 0 hr 32 min 7 sec) 
Heartbeat CPU 0 instructions: 150000000 cycles: 351797774 heartbeat IPC: 0.35446 cumulative IPC: 0.306525 (Simulation time: 0 hr 34 min 15 sec) 
Heartbeat CPU 0 instructions: 160000001 cycles: 387148150 heartbeat IPC: 0.282882 cumulative IPC: 0.304213 (Simulation time: 0 hr 36 min 40 sec) 
Heartbeat CPU 0 instructions: 170000001 cycles: 419209768 heartbeat IPC: 0.311899 cumulative IPC: 0.304839 (Simulation time: 0 hr 39 min 2 sec) 
Heartbeat CPU 0 instructions: 180000002 cycles: 449815771 heartbeat IPC: 0.326733 cumulative IPC: 0.306419 (Simulation time: 0 hr 41 min 30 sec) 
Heartbeat CPU 0 instructions: 190000001 cycles: 480045833 heartbeat IPC: 0.330797 cumulative IPC: 0.30804 (Simulation time: 0 hr 43 min 57 sec) 
Heartbeat CPU 0 instructions: 200000000 cycles: 511937461 heartbeat IPC: 0.313562 cumulative IPC: 0.308402 (Simulation time: 0 hr 46 min 23 sec) 
Heartbeat CPU 0 instructions: 210000001 cycles: 545601650 heartbeat IPC: 0.297052 cumulative IPC: 0.307667 (Simulation time: 0 hr 48 min 53 sec) 
Heartbeat CPU 0 instructions: 220000000 cycles: 579147865 heartbeat IPC: 0.298096 cumulative IPC: 0.307087 (Simulation time: 0 hr 51 min 18 sec) 
Heartbeat CPU 0 instructions: 230000002 cycles: 609649712 heartbeat IPC: 0.327849 cumulative IPC: 0.308172 (Simulation time: 0 hr 53 min 26 sec) 
Heartbeat CPU 0 instructions: 240000002 cycles: 644488366 heartbeat IPC: 0.287037 cumulative IPC: 0.306982 (Simulation time: 0 hr 55 min 47 sec) 
Heartbeat CPU 0 instructions: 250000003 cycles: 678327555 heartbeat IPC: 0.295515 cumulative IPC: 0.306388 (Simulation time: 0 hr 58 min 4 sec) 
Finished CPU 0 instructions: 200000001 cycles: 652767970 cumulative IPC: 0.306388 (Simulation time: 0 hr 58 min 4 sec) 
 Instruction ID: 250000384

ChampSim completed all CPUs

Region of Interest Statistics

CPU 0 cumulative IPC: 0.306388 instructions: 200000001 cycles: 652767970
ITLB SPEC fills:          0  NON-SPEC fills:          0
ITLB Test counter :          0
ITLB Leapfrog:          0
ITLB MSHR merge:          0
ITLB TOTAL     ACCESS:   32570610  HIT:   32439013  MISS:     131597  HIT %:     99.596  MISS %:   0.404036   MPKI: 0.657985
ITLB LOAD TRANSLATION NON_SPEC    ACCESS:   32570610  HIT:   32439013  MISS:     131597  HIT %:     99.596  MISS %:   0.404036   MPKI: 0.657985
ITLB PREFETCH  REQUESTED:          0  ISSUED:          0  USEFUL:          0  USELESS:          0
ITLB USEFUL LOAD PREFETCHES:          0 PREFETCH ISSUED TO LOWER LEVEL:          0  ACCURACY: -nan
ITLB TIMELY PREFETCHES:          0 LATE PREFETCHES: 0 DROPPED PREFETCHES: 0
ITLB COMMIT LATE PREFETCHES: 0 NORMAL LATE: 0 MISSED OPPORTUNITY: 0 UNCOVERED: 0
ITLB PREFETCHES SAME FILL-ORIGIN LEVEL: 0 DIFFERENT FILL-ORIGIN LEVEL: 0
ITLB AVERAGE MISS LATENCY: 22.3131 cycles
ITLB AVERAGE MISS LATENCY LOAD: -nan cycles
ITLB AVERAGE MISS LATENCY PREFETCH: -nan cycles
ITLB AVERAGE MSHR OCCUPANCY: 0.00214633
ITLB MSHR FULL: 0
ITLB RQ	ACCESS:   38375964	FORWARD:          0	MERGED:    5771958	TO_CACHE:   32604006

DTLB SPEC fills:          0  NON-SPEC fills:          0
DTLB Test counter :          0
DTLB Leapfrog:          0
DTLB MSHR merge:          0
DTLB TOTAL     ACCESS:   44099276  HIT:   42780575  MISS:    1318701  HIT %:    97.0097  MISS %:     2.9903   MPKI: 6.5935
DTLB LOAD TRANSLATION NON_SPEC    ACCESS:   44099276  HIT:   42780575  MISS:    1318701  HIT %:    97.0097  MISS %:     2.9903   MPKI: 6.5935
DTLB PREFETCH  REQUESTED:          0  ISSUED:          0  USEFUL:          0  USELESS:          0
DTLB USEFUL LOAD PREFETCHES:          0 PREFETCH ISSUED TO LOWER LEVEL:          0  ACCURACY: -nan
DTLB TIMELY PREFETCHES:          0 LATE PREFETCHES: 0 DROPPED PREFETCHES: 0
DTLB COMMIT LATE PREFETCHES: 0 NORMAL LATE: 0 MISSED OPPORTUNITY: 0 UNCOVERED: 0
DTLB PREFETCHES SAME FILL-ORIGIN LEVEL: 0 DIFFERENT FILL-ORIGIN LEVEL: 0
DTLB AVERAGE MISS LATENCY: 106.57 cycles
DTLB AVERAGE MISS LATENCY LOAD: -nan cycles
DTLB AVERAGE MISS LATENCY PREFETCH: -nan cycles
DTLB AVERAGE MSHR OCCUPANCY: 0.0541105
DTLB MSHR FULL: 0
DTLB RQ	ACCESS:   49201830	FORWARD:          0	MERGED:    4799501	TO_CACHE:   44402329

STLB SPEC fills:          0  NON-SPEC fills:          0
STLB Test counter :          0
STLB Leapfrog:          0
STLB MSHR merge:          0
STLB TOTAL     ACCESS:    1450298  HIT:     486338  MISS:     963960  HIT %:    33.5337  MISS %:    66.4663   MPKI: 4.8198
STLB LOAD TRANSLATION NON_SPEC    ACCESS:    1450298  HIT:     486338  MISS:     963960  HIT %:    33.5337  MISS %:    66.4663   MPKI: 4.8198
STLB PREFETCH  REQUESTED:          0  ISSUED:          0  USEFUL:          0  USELESS:          0
STLB USEFUL LOAD PREFETCHES:          0 PREFETCH ISSUED TO LOWER LEVEL:          0  ACCURACY: -nan
STLB TIMELY PREFETCHES:          0 LATE PREFETCHES: 0 DROPPED PREFETCHES: 0
STLB COMMIT LATE PREFETCHES: 0 NORMAL LATE: 0 MISSED OPPORTUNITY: 0 UNCOVERED: 0
STLB PREFETCHES SAME FILL-ORIGIN LEVEL: 0 DIFFERENT FILL-ORIGIN LEVEL: 0
STLB AVERAGE MISS LATENCY: 135.246 cycles
STLB AVERAGE MISS LATENCY LOAD: -nan cycles
STLB AVERAGE MISS LATENCY PREFETCH: -nan cycles
STLB AVERAGE MSHR OCCUPANCY: 0.131232
STLB MSHR FULL: 0
STLB RQ	ACCESS:    1450298	FORWARD:          0	MERGED:          0	TO_CACHE:    1450298

STLB Hit, L1D data hit: 0
STLB Hit, L2C data hit: 0
STLB Hit, LLC data hit: 0
STLB Hit, LLC data miss: 0
STLB STLB hints to L2: 0
L0D SPEC fills:   18591373  NON-SPEC fills:          0
L0D TimeGuard Request with older TS:     139811 Restricted eviction:      44974 read:      59984
L0D Test counter :          0
L0D Leapfrog:          0
L0D MSHR merge:    2898325
L0D TOTAL     ACCESS:   36397081  HIT:    7123542  MISS:   29273539  HIT %:    19.5717  MISS %:    80.4283   MPKI: 146.368
L0D LOAD      TOTAL       ACCESS:   36397081  HIT:    7123542  MISS:   29273539  HIT %:    19.5717  MISS %:    80.4283   MPKI: 146.368
L0D LOAD      NON_SPEC    ACCESS:   10689637  HIT:      52429  MISS:   10637208  HIT %:   0.490466  MISS %:    99.5095   MPKI: 53.186
L0D LOAD      SPEC        ACCESS:   25707444  HIT:    7071113  MISS:   18636331  HIT %:    27.5061  MISS %:    72.4939   MPKI: 93.1817
L0D PREFETCH  REQUESTED:          0  ISSUED:          0  USEFUL:          0  USELESS:          0
L0D USEFUL LOAD PREFETCHES:          0 PREFETCH ISSUED TO LOWER LEVEL:          0  ACCURACY: -nan
L0D TIMELY PREFETCHES:          0 LATE PREFETCHES: 0 DROPPED PREFETCHES: 0
L0D COMMIT LATE PREFETCHES: 0 NORMAL LATE: 0 MISSED OPPORTUNITY: 0 UNCOVERED: 29273539
L0D PREFETCHES SAME FILL-ORIGIN LEVEL: 0 DIFFERENT FILL-ORIGIN LEVEL: 0
L0D AVERAGE MISS LATENCY: 25.3822 cycles
L0D AVERAGE MISS LATENCY LOAD: 25.3822 cycles
L0D AVERAGE MISS LATENCY PREFETCH: -nan cycles
L0D AVERAGE MSHR OCCUPANCY: 0.704404
L0D MSHR FULL: 0.00109078
L0D RQ	ACCESS:   58703868	FORWARD:          0	MERGED:   19408462	TO_CACHE:   39295406
L0D WQ	ACCESS:    9906424	FORWARD:          0	MERGED:          0	TO_CACHE:    9906424

L1D SPEC fills:          0  NON-SPEC fills:    1853303
L1D Test counter :          0
L1D Leapfrog:          0
L1D MSHR merge:       5795
L1D TOTAL     ACCESS:   71231346  HIT:   62457433  MISS:    8773913  HIT %:    87.6825  MISS %:    12.3175   MPKI: 43.8696
L1D LOAD      TOTAL       ACCESS:   29267744  HIT:   23967572  MISS:    5300172  HIT %:    81.8907  MISS %:    18.1093   MPKI: 26.5009
L1D LOAD      NON_SPEC    ACCESS:   10633708  HIT:    8780405  MISS:    1853303  HIT %:    82.5714  MISS %:    17.4286   MPKI: 9.26651
L1D LOAD      SPEC        ACCESS:   18634036  HIT:   15187167  MISS:    3446869  HIT %:    81.5023  MISS %:    18.4977   MPKI: 17.2343
L1D RFO       NON_SPEC    ACCESS:    9240323  HIT:    9160679  MISS:      79644  HIT %:    99.1381  MISS %:   0.861918   MPKI: 0.39822
L1D COMMIT LOAD NON_SPEC    ACCESS:   14223819  HIT:   14210672  MISS:      13147  HIT %:    99.9076  MISS %:  0.0924295   MPKI: 0.065735
L1D COMMIT WRITE NON_SPEC    ACCESS:   18499460  HIT:   15118510  MISS:    3380950  HIT %:    81.7241  MISS %:    18.2759   MPKI: 16.9047
L1D PREFETCH  REQUESTED:          0  ISSUED:          0  USEFUL:          0  USELESS:          0
L1D USEFUL LOAD PREFETCHES:          0 PREFETCH ISSUED TO LOWER LEVEL:          0  ACCURACY: -nan
L1D TIMELY PREFETCHES:          0 LATE PREFETCHES: 0 DROPPED PREFETCHES: 0
L1D COMMIT LATE PREFETCHES: 0 NORMAL LATE: 0 MISSED OPPORTUNITY: 0 UNCOVERED: 5300172
L1D PREFETCHES SAME FILL-ORIGIN LEVEL: 0 DIFFERENT FILL-ORIGIN LEVEL: 0
L1D AVERAGE MISS LATENCY: 68.939 cycles
L1D AVERAGE MISS LATENCY LOAD: 112.081 cycles
L1D AVERAGE MISS LATENCY PREFETCH: -nan cycles
L1D AVERAGE MSHR OCCUPANCY: 0.237065
L1D MSHR FULL: 8.20357e-05
L1D RQ	ACCESS:   58770778	FORWARD:          0	MERGED:   15150070	TO_CACHE:   43502618
L1D WQ	ACCESS:   28400668	FORWARD:     118090	MERGED:     433777	TO_CACHE:   27966891

L1D UNIQUE REGIONS ACCESSED: 0
L1D REGIONS CONFLICTS: 0
L1D Cross Page Prefetch Requests: 0
L1D Same Page Prefetch Requests: 0
L1D ROI Sum of L1D PQ occupancy: 0
L1D PREFETCHES PUSHED FROM L2C: 0
L1I SPEC fills:          0  NON-SPEC fills:          0
L1I Test counter :          0
L1I Leapfrog:          0
L1I MSHR merge:     221717
L1I TOTAL     ACCESS:   38154246  HIT:   37440594  MISS:     713652  HIT %:    98.1296  MISS %:    1.87044   MPKI: 3.56826
L1I LOAD      TOTAL       ACCESS:   38154246  HIT:   37440594  MISS:     713652  HIT %:    98.1296  MISS %:    1.87044   MPKI: 3.56826
L1I LOAD      NON_SPEC    ACCESS:   38154246  HIT:   37440594  MISS:     713652  HIT %:    98.1296  MISS %:    1.87044   MPKI: 3.56826
L1I PREFETCH  REQUESTED:          0  ISSUED:          0  USEFUL:          0  USELESS:          0
L1I USEFUL LOAD PREFETCHES:          0 PREFETCH ISSUED TO LOWER LEVEL:          0  ACCURACY: -nan
L1I TIMELY PREFETCHES:          0 LATE PREFETCHES: 0 DROPPED PREFETCHES: 0
L1I COMMIT LATE PREFETCHES: 0 NORMAL LATE: 0 MISSED OPPORTUNITY: 0 UNCOVERED: 713652
L1I PREFETCHES SAME FILL-ORIGIN LEVEL: 0 DIFFERENT FILL-ORIGIN LEVEL: 0
L1I AVERAGE MISS LATENCY: 42.0083 cycles
L1I AVERAGE MISS LATENCY LOAD: 42.0083 cycles
L1I AVERAGE MISS LATENCY PREFETCH: -nan cycles
L1I AVERAGE MSHR OCCUPANCY: 0.0271705
L1I MSHR FULL: 0
L1I RQ	ACCESS:   65763707	FORWARD:          0	MERGED:   27387743	TO_CACHE:   38375964

BTB SPEC fills:          0  NON-SPEC fills:          0
BTB Test counter :          0
BTB Leapfrog:          0
BTB MSHR merge:          0
BTB TOTAL     ACCESS:   33166957  HIT:   32847077  MISS:     319880  HIT %:    99.0355  MISS %:   0.964454   MPKI: 1.5994
BTB BRANCH_DIRECT_JUMP	ACCESS:     525801  HIT:     523851  MISS:       1950
BTB BRANCH_INDIRECT	ACCESS:      94835  HIT:      37758  MISS:      57077
BTB BRANCH_CONDITIONAL	ACCESS:   27817701  HIT:   27808168  MISS:       9533
BTB BRANCH_DIRECT_CALL	ACCESS:    1305271  HIT:    1301665  MISS:       3606
BTB BRANCH_INDIRECT_CALL	ACCESS:    1059041  HIT:    1046752  MISS:      12289
BTB BRANCH_RETURN	ACCESS:    2364308  HIT:    2128883  MISS:     235425
BTB BRANCH_OTHER ACCESS:          0  HIT:          0  MISS:          0

L2C SPEC fills:          0  NON-SPEC fills:    1162297
L2C Test counter :          0
L2C Leapfrog:          0
L2C MSHR merge:     364639
L2C TOTAL     ACCESS:   18608917  HIT:    8517621  MISS:   10091296  HIT %:    45.7717  MISS %:    54.2283   MPKI: 50.4565
L2C LOAD      TOTAL       ACCESS:    6013807  HIT:    2156062  MISS:    3857745  HIT %:    35.8519  MISS %:    64.1481   MPKI: 19.2887
L2C LOAD      NON_SPEC    ACCESS:    2566952  HIT:    1251236  MISS:    1315716  HIT %:     48.744  MISS %:     51.256   MPKI: 6.57858
L2C LOAD      SPEC        ACCESS:    3446855  HIT:     904826  MISS:    2542029  HIT %:    26.2508  MISS %:    73.7492   MPKI: 12.7101
L2C RFO       NON_SPEC    ACCESS:      79633  HIT:      27360  MISS:      52273  HIT %:    34.3576  MISS %:    65.6424   MPKI: 0.261365
L2C PREFETCH  NON_SPEC    ACCESS:    3855728  HIT:     415408  MISS:    3440320  HIT %:    10.7738  MISS %:    89.2262   MPKI: 17.2016
L2C WRITEBACK NON_SPEC    ACCESS:      91655  HIT:      91447  MISS:        208  HIT %:    99.7731  MISS %:   0.226938   MPKI: 0.00104
L2C CLEAN_EVICTION NON_SPEC    ACCESS:    3735176  HIT:    1229681  MISS:    2505495  HIT %:    32.9216  MISS %:    67.0784   MPKI: 12.5275
L2C COMMIT LOAD NON_SPEC    ACCESS:      13118  HIT:      10418  MISS:       2700  HIT %:    79.4176  MISS %:    20.5824   MPKI: 0.0135
L2C LOAD TRANSLATION NON_SPEC    ACCESS:    4819800  HIT:    4587245  MISS:     232555  HIT %:     95.175  MISS %:    4.82499   MPKI: 1.16277
L2C PREFETCH  REQUESTED:    5067711  ISSUED:    5067711  USEFUL:    1086743  USELESS:    2352245
L2C USEFUL LOAD PREFETCHES:    1086743 PREFETCH ISSUED TO LOWER LEVEL:    3805005  ACCURACY: 28.5609
L2C TIMELY PREFETCHES:    1086743 LATE PREFETCHES: 364679 DROPPED PREFETCHES: 0
L2C COMMIT LATE PREFETCHES: 0 NORMAL LATE: 364679 MISSED OPPORTUNITY: 0 UNCOVERED: 3493066
L2C PREFETCHES SAME FILL-ORIGIN LEVEL: 3805005 DIFFERENT FILL-ORIGIN LEVEL: 0
L2C AVERAGE MISS LATENCY: 117.942 cycles
L2C AVERAGE MISS LATENCY LOAD: 142.712 cycles
L2C AVERAGE MISS LATENCY PREFETCH: 169.475 cycles
L2C AVERAGE MSHR OCCUPANCY: 1.4651
L2C MSHR FULL: 5.22563e-05
L2C RQ	ACCESS:   10926416	FORWARD:          0	MERGED:          0	TO_CACHE:   10926359
L2C WQ	ACCESS:    3826837	FORWARD:         57	MERGED:          6	TO_CACHE:    3826831
L2C PQ	ACCESS:    5067711	FORWARD:          0	MERGED:          0	TO_CACHE:    5067711

L2C Instructions Evicting Data 145764
L2C Translations Evicting Data 222922
L2C Data Evicting Data 4409037
L2C Instructions Evicting Instructions 4250
L2C Translations Evicting Instructions 3120
L2C Data Evicting Instructions 107520
L2C Instructions Evicting Translations 3405
L2C Translations Evicting Translations 6513
L2C Data Evicting Translations 141033
L2C Dense regions hint from L2: 0
PSCL5 SPEC fills:          0  NON-SPEC fills:          0
PSCL5 Test counter :          0
PSCL5 Leapfrog:          0
PSCL5 MSHR merge:          0
PSCL5 TOTAL     ACCESS:          0  HIT:          0  MISS:          0  HIT %:       -nan  MISS %:       -nan   MPKI: 0
PSCL5 PREFETCH  REQUESTED:          0  ISSUED:          0  USEFUL:          0  USELESS:          0
PSCL5 USEFUL LOAD PREFETCHES:          0 PREFETCH ISSUED TO LOWER LEVEL:          0  ACCURACY: -nan
PSCL5 TIMELY PREFETCHES:          0 LATE PREFETCHES: 0 DROPPED PREFETCHES: 0
PSCL5 COMMIT LATE PREFETCHES: 0 NORMAL LATE: 0 MISSED OPPORTUNITY: 0 UNCOVERED: 0
PSCL5 PREFETCHES SAME FILL-ORIGIN LEVEL: 0 DIFFERENT FILL-ORIGIN LEVEL: 0

PSCL4 SPEC fills:          0  NON-SPEC fills:          0
PSCL4 Test counter :          0
PSCL4 Leapfrog:          0
PSCL4 MSHR merge:          0
PSCL4 TOTAL     ACCESS:          0  HIT:          0  MISS:          0  HIT %:       -nan  MISS %:       -nan   MPKI: 0
PSCL4 PREFETCH  REQUESTED:          0  ISSUED:          0  USEFUL:          0  USELESS:          0
PSCL4 USEFUL LOAD PREFETCHES:          0 PREFETCH ISSUED TO LOWER LEVEL:          0  ACCURACY: -nan
PSCL4 TIMELY PREFETCHES:          0 LATE PREFETCHES: 0 DROPPED PREFETCHES: 0
PSCL4 COMMIT LATE PREFETCHES: 0 NORMAL LATE: 0 MISSED OPPORTUNITY: 0 UNCOVERED: 0
PSCL4 PREFETCHES SAME FILL-ORIGIN LEVEL: 0 DIFFERENT FILL-ORIGIN LEVEL: 0

PSCL3 SPEC fills:          0  NON-SPEC fills:          0
PSCL3 Test counter :          0
PSCL3 Leapfrog:          0
PSCL3 MSHR merge:          0
PSCL3 TOTAL     ACCESS:          0  HIT:          0  MISS:          0  HIT %:       -nan  MISS %:       -nan   MPKI: 0
PSCL3 PREFETCH  REQUESTED:          0  ISSUED:          0  USEFUL:          0  USELESS:          0
PSCL3 USEFUL LOAD PREFETCHES:          0 PREFETCH ISSUED TO LOWER LEVEL:          0  ACCURACY: -nan
PSCL3 TIMELY PREFETCHES:          0 LATE PREFETCHES: 0 DROPPED PREFETCHES: 0
PSCL3 COMMIT LATE PREFETCHES: 0 NORMAL LATE: 0 MISSED OPPORTUNITY: 0 UNCOVERED: 0
PSCL3 PREFETCHES SAME FILL-ORIGIN LEVEL: 0 DIFFERENT FILL-ORIGIN LEVEL: 0

PSCL2 SPEC fills:          0  NON-SPEC fills:          0
PSCL2 Test counter :          0
PSCL2 Leapfrog:          0
PSCL2 MSHR merge:          0
PSCL2 TOTAL     ACCESS:          0  HIT:          0  MISS:          0  HIT %:       -nan  MISS %:       -nan   MPKI: 0
PSCL2 PREFETCH  REQUESTED:          0  ISSUED:          0  USEFUL:          0  USELESS:          0
PSCL2 USEFUL LOAD PREFETCHES:          0 PREFETCH ISSUED TO LOWER LEVEL:          0  ACCURACY: -nan
PSCL2 TIMELY PREFETCHES:          0 LATE PREFETCHES: 0 DROPPED PREFETCHES: 0
PSCL2 COMMIT LATE PREFETCHES: 0 NORMAL LATE: 0 MISSED OPPORTUNITY: 0 UNCOVERED: 0
PSCL2 PREFETCHES SAME FILL-ORIGIN LEVEL: 0 DIFFERENT FILL-ORIGIN LEVEL: 0

LLC SPEC fills:          0  NON-SPEC fills:    1066847
LLC Test counter :          0
LLC Leapfrog:          0
LLC MSHR merge:          0
LLC TOTAL     ACCESS:   11003138  HIT:    1816002  MISS:    9187136  HIT %:    16.5044  MISS %:    83.4956   MPKI: 45.9357
LLC LOAD      TOTAL       ACCESS:    3493106  HIT:     180315  MISS:    3312791  HIT %:    5.16202  MISS %:     94.838   MPKI: 16.564
LLC LOAD      NON_SPEC    ACCESS:    1260412  HIT:     102131  MISS:    1158281  HIT %:    8.10299  MISS %:     91.897   MPKI: 5.7914
LLC LOAD      SPEC        ACCESS:    2232694  HIT:      78184  MISS:    2154510  HIT %:    3.50178  MISS %:    96.4982   MPKI: 10.7725
LLC RFO       NON_SPEC    ACCESS:      52233  HIT:       6899  MISS:      45334  HIT %:    13.2081  MISS %:    86.7919   MPKI: 0.22667
LLC PREFETCH  NON_SPEC    ACCESS:    3805001  HIT:     327320  MISS:    3477681  HIT %:    8.60236  MISS %:    91.3976   MPKI: 17.3884
LLC WRITEBACK NON_SPEC    ACCESS:      59139  HIT:      59050  MISS:         89  HIT %:    99.8495  MISS %:   0.150493   MPKI: 0.000445
LLC CLEAN_EVICTION NON_SPEC    ACCESS:    3358404  HIT:    1232284  MISS:    2126120  HIT %:    36.6925  MISS %:    63.3075   MPKI: 10.6306
LLC COMMIT LOAD NON_SPEC    ACCESS:       2700  HIT:       1102  MISS:       1598  HIT %:    40.8148  MISS %:    59.1852   MPKI: 0.00799
LLC LOAD TRANSLATION NON_SPEC    ACCESS:     232555  HIT:       9032  MISS:     223523  HIT %:    3.88381  MISS %:    96.1162   MPKI: 1.11761
LLC PREFETCH  REQUESTED:          0  ISSUED:          0  USEFUL:      30141  USELESS:    3449226
LLC USEFUL LOAD PREFETCHES:      30141 PREFETCH ISSUED TO LOWER LEVEL:    3477681  ACCURACY: 0.866698
LLC TIMELY PREFETCHES:      30141 LATE PREFETCHES: 0 DROPPED PREFETCHES: 0
LLC COMMIT LATE PREFETCHES: 0 NORMAL LATE: 0 MISSED OPPORTUNITY: 0 UNCOVERED: 3312791
LLC PREFETCHES SAME FILL-ORIGIN LEVEL: 0 DIFFERENT FILL-ORIGIN LEVEL: 0
LLC AVERAGE MISS LATENCY: 111.164 cycles
LLC AVERAGE MISS LATENCY LOAD: 131.946 cycles
LLC AVERAGE MISS LATENCY PREFETCH: 154.185 cycles
LLC AVERAGE MSHR OCCUPANCY: 1.2431
LLC MSHR FULL: 0
LLC RQ	ACCESS:    3780594	FORWARD:          0	MERGED:          0	TO_CACHE:    3780594
LLC WQ	ACCESS:    3417545	FORWARD:          2	MERGED:          0	TO_CACHE:    3417545
LLC PQ	ACCESS:    3805005	FORWARD:          0	MERGED:          0	TO_CACHE:    3805003

LLC Dense regions hint to LLC: 0

RAW hits: 285200
Loads Generated: 58989068
Loads sent to L1D: 58703868
Stores Generated: 9906424
Stores sent to L1D: 9906424
Major fault: 0 Minor fault: 11434
Allocated PAGES: 11434
Total Load insts: 73347352
Total Non-spec loads: 11707628
Percentage of speculative loads: 84.0381

LeapFrogging counter: 5469
Commit hits: 18499981 miss: 29497239
Commit hit %: 38.5439 miss %: 61.4561
Commits not translated: 0
Loads retired: 5300171
Stores retired: 9906424
Cache fills: 5300172
L1D response latency: 112.081 cycles
Load retirement latency: 210.437 cycles
OOO test counter: 0
Discarded buffer inserts: 18499981 hits: 31877 hit %: 0.172308
Filter prediction accuracy: -nan
[Bingo] PHT Access: 1402528
[Bingo] PHT Hit PC+Addr: 163655
[Bingo] PHT Hit PC+Offs: 1220302
[Bingo] PHT Miss: 18571
[Bingo] Prefetch PC+Addr: 0
[Bingo] Prefetch PC+Offs: 0
[Bingo] Useful PC+Addr: 0
[Bingo] Useful PC+Offs: 0
[Bingo] Useless PC+Addr: 0
[Bingo] Useless PC+Offs: 0
[Bingo] L1 Prefetch per Region: 0
[Bingo] L2 Prefetch per Region: 4.67702
[Bingo] L3 Prefetch per Region: 0
[Bingo] No Prefetch per Region: 27.323
[Bingo] Number of Voters Mean: 15.7555
[Bingo] Number of Voters SD: 8.17766
PHT read accesses: 20691757
PHT write accesses: 1033212
AT read accesses: 3906711
AT write accesses: 4924414
FT read accesses: 3119947
FT write accesses: 1402528
PS read accesses: 2832265
PS write accesses: 1383957
PHT tag read accesses: 51408610
PHT tag write accesses: 1196867
AT tag read accesses: 255068720
AT tag write accesses: 4939920
FT tag read accesses: 213435469
FT tag write accesses: 3482844
PS tag read accesses: 134771100
PS tag write accesses: 4212707

DRAM Statistics
 CHANNEL 0
 RQ ROW_BUFFER_HIT:    2635857  ROW_BUFFER_MISS:    4425069
 DBUS_CONGESTED:       4839
 WQ ROW_BUFFER_HIT:     514913  ROW_BUFFER_MISS:    2679479  FULL:          0

 AVG_CONGESTED_CYCLE: 4
 All warmup complete: 2
Channel 0 Bank busy for read cycles: 0
Channel 0 Bank busy for write cycles: 0
Channel 0
Rank 0
0banks busy for read cycles: 140632951
0banks busy for write cycles: 188726
1banks busy for read cycles: 126842106
1banks busy for write cycles: 31620075
2banks busy for read cycles: 67149009
2banks busy for write cycles: 33802412
3banks busy for read cycles: 31154837
3banks busy for write cycles: 36775015
4banks busy for read cycles: 22734183
4banks busy for write cycles: 35743020
5banks busy for read cycles: 27202924
5banks busy for write cycles: 29179534
6banks busy for read cycles: 17448511
6banks busy for write cycles: 19495971
7banks busy for read cycles: 8846501
7banks busy for write cycles: 11420146
8banks busy for read cycles: 5947612
8banks busy for write cycles: 6584438

CPU 0 Branch Prediction Accuracy: 99.7326% MPKI: 0.69165 Average ROB Occupancy at Mispredict: 102.152
Branch types
NOT_BRANCH: 148259765 74.1299%
BRANCH_DIRECT_JUMP: 525801 0.2629%
BRANCH_INDIRECT: 94835 0.0474175%
BRANCH_CONDITIONAL: 46390980 23.1955%
BRANCH_DIRECT_CALL: 1305271 0.652635%
BRANCH_INDIRECT_CALL: 1059041 0.52952%
BRANCH_RETURN: 2364308 1.18215%
BRANCH_OTHER: 0 0%

DRAM PAGES: 1048576
Allocated PAGES: 11434
