
*** ChampSim Multicore Out-of-Order Simulator ***

Warmup Instructions: 50000000
Simulation Instructions: 200000000
Number of CPUs: 1
LLC sets: 2048
LLC ways: 16
L0D sets: 16
L0D ways: 2
ROB size: 352
LQ size: 128
SQ size: 72
Secure Berti: OFF
Berti: OFF
Berti Fill: OFF
On commit prefetching: OFF
Hit-based filter: OFF
Time-guarding: ON
Free-slotting: ON
Leap-frogging: ON
Train prefetcher on L0D bypass: OFF
No translation penalty for prefetchers: OFF
Prefetch to L0D only: OFF
Prefetch to L1D only: OFF
Clean evictions: ON
Commit loads: ON
Commit write: ON
Fill commit loads to L2C, LLC: ON
DRAM IO FREQUENCY: 6400
ROB SIZE: 352
Off-chip DRAM Size: 4096 MB Channels: 1 Width: 64-bit Data Rate: 6400 MT/s
CPU 0 runs /home/sumon/secure_berti/GhostMinion/../../traces/spec/649.fotonik3d_s-10881B.champsimtrace.xz
.xz
BTB has LRU replacement policy
ITLB has LRU replacement policy
DTLB has LRU replacement policy
STLB has LRU replacement policy
L1I has LRU replacement policy
L0D has LRU replacement policy
L1D has LRU replacement policy
Bingo PHT WAYS: 16 and PHT_SIZE: 16384
L2C has LRU replacement policy
LLC has LRU replacement policy
Heartbeat CPU 0 instructions: 10000000 cycles: 5630585 heartbeat IPC: 1.77601 cumulative IPC: 1.77601 (Simulation time: 0 hr 2 min 1 sec) 
Heartbeat CPU 0 instructions: 20000000 cycles: 11247743 heartbeat IPC: 1.78026 cumulative IPC: 1.77813 (Simulation time: 0 hr 4 min 3 sec) 
Heartbeat CPU 0 instructions: 30000000 cycles: 16865990 heartbeat IPC: 1.77991 cumulative IPC: 1.77873 (Simulation time: 0 hr 6 min 3 sec) 
Heartbeat CPU 0 instructions: 40000002 cycles: 22483469 heartbeat IPC: 1.78016 cumulative IPC: 1.77908 (Simulation time: 0 hr 8 min 1 sec) 
Heartbeat CPU 0 instructions: 50000002 cycles: 28103074 heartbeat IPC: 1.77948 cumulative IPC: 1.77916 (Simulation time: 0 hr 9 min 59 sec) 

Warmup complete CPU 0 instructions: 50000002 cycles: 28103074 (Simulation time: 0 hr 9 min 59 sec) 

Heartbeat CPU 0 instructions: 60000000 cycles: 43868262 heartbeat IPC: 0.634309 cumulative IPC: 0.634309 (Simulation time: 0 hr 12 min 25 sec) 
Heartbeat CPU 0 instructions: 70000000 cycles: 59663349 heartbeat IPC: 0.633108 cumulative IPC: 0.633708 (Simulation time: 0 hr 14 min 51 sec) 
Heartbeat CPU 0 instructions: 80000001 cycles: 75453414 heartbeat IPC: 0.63331 cumulative IPC: 0.633575 (Simulation time: 0 hr 17 min 17 sec) 
Heartbeat CPU 0 instructions: 90000003 cycles: 91251635 heartbeat IPC: 0.632983 cumulative IPC: 0.633427 (Simulation time: 0 hr 19 min 44 sec) 
Heartbeat CPU 0 instructions: 100000003 cycles: 107045345 heartbeat IPC: 0.633163 cumulative IPC: 0.633374 (Simulation time: 0 hr 22 min 10 sec) 
Heartbeat CPU 0 instructions: 110000000 cycles: 122835740 heartbeat IPC: 0.633296 cumulative IPC: 0.633361 (Simulation time: 0 hr 24 min 37 sec) 
Heartbeat CPU 0 instructions: 120000003 cycles: 138638019 heartbeat IPC: 0.63282 cumulative IPC: 0.633284 (Simulation time: 0 hr 27 min 4 sec) 
Heartbeat CPU 0 instructions: 130000000 cycles: 154393158 heartbeat IPC: 0.634713 cumulative IPC: 0.633462 (Simulation time: 0 hr 29 min 30 sec) 
Heartbeat CPU 0 instructions: 140000002 cycles: 170239763 heartbeat IPC: 0.63105 cumulative IPC: 0.633193 (Simulation time: 0 hr 31 min 56 sec) 
Heartbeat CPU 0 instructions: 150000003 cycles: 186076712 heartbeat IPC: 0.631435 cumulative IPC: 0.633017 (Simulation time: 0 hr 34 min 21 sec) 
Heartbeat CPU 0 instructions: 160000001 cycles: 201806762 heartbeat IPC: 0.635726 cumulative IPC: 0.633262 (Simulation time: 0 hr 36 min 45 sec) 
Heartbeat CPU 0 instructions: 170000001 cycles: 217642506 heartbeat IPC: 0.631483 cumulative IPC: 0.633114 (Simulation time: 0 hr 39 min 11 sec) 
Heartbeat CPU 0 instructions: 180000002 cycles: 233458205 heartbeat IPC: 0.632283 cumulative IPC: 0.63305 (Simulation time: 0 hr 41 min 37 sec) 
Heartbeat CPU 0 instructions: 190000000 cycles: 249202772 heartbeat IPC: 0.63514 cumulative IPC: 0.633198 (Simulation time: 0 hr 44 min 18 sec) 
Heartbeat CPU 0 instructions: 200000000 cycles: 264989852 heartbeat IPC: 0.633429 cumulative IPC: 0.633214 (Simulation time: 0 hr 46 min 55 sec) 
Heartbeat CPU 0 instructions: 210000000 cycles: 280814444 heartbeat IPC: 0.631928 cumulative IPC: 0.633133 (Simulation time: 0 hr 49 min 30 sec) 
Heartbeat CPU 0 instructions: 220000000 cycles: 296663691 heartbeat IPC: 0.630945 cumulative IPC: 0.633004 (Simulation time: 0 hr 52 min 1 sec) 
Heartbeat CPU 0 instructions: 230000001 cycles: 312453977 heartbeat IPC: 0.633301 cumulative IPC: 0.633021 (Simulation time: 0 hr 54 min 28 sec) 
Heartbeat CPU 0 instructions: 240000002 cycles: 328286076 heartbeat IPC: 0.631628 cumulative IPC: 0.632947 (Simulation time: 0 hr 56 min 55 sec) 
Heartbeat CPU 0 instructions: 250000000 cycles: 344127062 heartbeat IPC: 0.631274 cumulative IPC: 0.632863 (Simulation time: 0 hr 59 min 19 sec) 
Finished CPU 0 instructions: 200000002 cycles: 316023989 cumulative IPC: 0.632863 (Simulation time: 0 hr 59 min 19 sec) 
 Instruction ID: 250000353

ChampSim completed all CPUs

Region of Interest Statistics

CPU 0 cumulative IPC: 0.632863 instructions: 200000002 cycles: 316023989
ITLB SPEC fills:          0  NON-SPEC fills:          0
ITLB Test counter :          0
ITLB Leapfrog:          0
ITLB MSHR merge:          0
ITLB TOTAL     ACCESS:   26303683  HIT:   26303683  MISS:          0  HIT %:        100  MISS %:          0   MPKI: 0
ITLB LOAD TRANSLATION NON_SPEC    ACCESS:   26303683  HIT:   26303683  MISS:          0  HIT %:        100  MISS %:          0   MPKI: 0
ITLB PREFETCH  REQUESTED:          0  ISSUED:          0  USEFUL:          0  USELESS:          0
ITLB USEFUL LOAD PREFETCHES:          0 PREFETCH ISSUED TO LOWER LEVEL:          0  ACCURACY: -nan
ITLB TIMELY PREFETCHES:          0 LATE PREFETCHES: 0 DROPPED PREFETCHES: 0
ITLB COMMIT LATE PREFETCHES: 0 NORMAL LATE: 0 MISSED OPPORTUNITY: 0 UNCOVERED: 0
ITLB PREFETCHES SAME FILL-ORIGIN LEVEL: 0 DIFFERENT FILL-ORIGIN LEVEL: 0
ITLB AVERAGE MISS LATENCY: -nan cycles
ITLB AVERAGE MISS LATENCY LOAD: -nan cycles
ITLB AVERAGE MISS LATENCY PREFETCH: -nan cycles
ITLB AVERAGE MSHR OCCUPANCY: 0
ITLB MSHR FULL: 0
ITLB RQ	ACCESS:   27930517	FORWARD:          0	MERGED:    1626834	TO_CACHE:   26303683

DTLB SPEC fills:          0  NON-SPEC fills:          0
DTLB Test counter :          0
DTLB Leapfrog:          0
DTLB MSHR merge:          0
DTLB TOTAL     ACCESS:   93777874  HIT:   92763521  MISS:    1014353  HIT %:    98.9183  MISS %:    1.08165   MPKI: 5.07176
DTLB LOAD TRANSLATION NON_SPEC    ACCESS:   93777874  HIT:   92763521  MISS:    1014353  HIT %:    98.9183  MISS %:    1.08165   MPKI: 5.07176
DTLB PREFETCH  REQUESTED:          0  ISSUED:          0  USEFUL:          0  USELESS:          0
DTLB USEFUL LOAD PREFETCHES:          0 PREFETCH ISSUED TO LOWER LEVEL:          0  ACCURACY: -nan
DTLB TIMELY PREFETCHES:          0 LATE PREFETCHES: 0 DROPPED PREFETCHES: 0
DTLB COMMIT LATE PREFETCHES: 0 NORMAL LATE: 0 MISSED OPPORTUNITY: 0 UNCOVERED: 0
DTLB PREFETCHES SAME FILL-ORIGIN LEVEL: 0 DIFFERENT FILL-ORIGIN LEVEL: 0
DTLB AVERAGE MISS LATENCY: 283.163 cycles
DTLB AVERAGE MISS LATENCY LOAD: -nan cycles
DTLB AVERAGE MISS LATENCY PREFETCH: -nan cycles
DTLB AVERAGE MSHR OCCUPANCY: 0.231067
DTLB MSHR FULL: 0.000598897
DTLB RQ	ACCESS:  109386501	FORWARD:          0	MERGED:   15542224	TO_CACHE:   93844277

STLB SPEC fills:          0  NON-SPEC fills:          0
STLB Test counter :          0
STLB Leapfrog:          0
STLB MSHR merge:          0
STLB TOTAL     ACCESS:    1014353  HIT:     335153  MISS:     679200  HIT %:    33.0411  MISS %:    66.9589   MPKI: 3.396
STLB LOAD TRANSLATION NON_SPEC    ACCESS:    1014353  HIT:     335153  MISS:     679200  HIT %:    33.0411  MISS %:    66.9589   MPKI: 3.396
STLB PREFETCH  REQUESTED:          0  ISSUED:          0  USEFUL:          0  USELESS:          0
STLB USEFUL LOAD PREFETCHES:          0 PREFETCH ISSUED TO LOWER LEVEL:          0  ACCURACY: -nan
STLB TIMELY PREFETCHES:          0 LATE PREFETCHES: 0 DROPPED PREFETCHES: 0
STLB COMMIT LATE PREFETCHES: 0 NORMAL LATE: 0 MISSED OPPORTUNITY: 0 UNCOVERED: 0
STLB PREFETCHES SAME FILL-ORIGIN LEVEL: 0 DIFFERENT FILL-ORIGIN LEVEL: 0
STLB AVERAGE MISS LATENCY: 408.759 cycles
STLB AVERAGE MISS LATENCY LOAD: -nan cycles
STLB AVERAGE MISS LATENCY PREFETCH: -nan cycles
STLB AVERAGE MSHR OCCUPANCY: 1.08482
STLB MSHR FULL: 0
STLB RQ	ACCESS:    1014353	FORWARD:          0	MERGED:          0	TO_CACHE:    1014353

STLB Hit, L1D data hit: 0
STLB Hit, L2C data hit: 0
STLB Hit, LLC data hit: 0
STLB Hit, LLC data miss: 0
STLB STLB hints to L2: 0
L0D SPEC fills:   52385065  NON-SPEC fills:          0
L0D TimeGuard Request with older TS:    8650056 Restricted eviction:    6274342 read:    2069679
L0D Test counter :          0
L0D Leapfrog:          0
L0D MSHR merge:    5649043
L0D TOTAL     ACCESS:   90914839  HIT:   27999546  MISS:   62915293  HIT %:    30.7976  MISS %:    69.2024   MPKI: 314.576
L0D LOAD      TOTAL       ACCESS:   90914839  HIT:   27999546  MISS:   62915293  HIT %:    30.7976  MISS %:    69.2024   MPKI: 314.576
L0D LOAD      NON_SPEC    ACCESS:    5338980  HIT:    1082825  MISS:    4256155  HIT %:    20.2815  MISS %:    79.7185   MPKI: 21.2808
L0D LOAD      SPEC        ACCESS:   85575859  HIT:   26916721  MISS:   58659138  HIT %:    31.4536  MISS %:    68.5464   MPKI: 293.296
L0D PREFETCH  REQUESTED:          0  ISSUED:          0  USEFUL:          0  USELESS:          0
L0D USEFUL LOAD PREFETCHES:          0 PREFETCH ISSUED TO LOWER LEVEL:          0  ACCURACY: -nan
L0D TIMELY PREFETCHES:          0 LATE PREFETCHES: 0 DROPPED PREFETCHES: 0
L0D COMMIT LATE PREFETCHES: 0 NORMAL LATE: 0 MISSED OPPORTUNITY: 0 UNCOVERED: 62915293
L0D PREFETCHES SAME FILL-ORIGIN LEVEL: 0 DIFFERENT FILL-ORIGIN LEVEL: 0
L0D AVERAGE MISS LATENCY: 10.8549 cycles
L0D AVERAGE MISS LATENCY LOAD: 10.8549 cycles
L0D AVERAGE MISS LATENCY PREFETCH: -nan cycles
L0D AVERAGE MSHR OCCUPANCY: 3.0902
L0D MSHR FULL: 0.0432678
L0D RQ	ACCESS:  127618911	FORWARD:          0	MERGED:   31055027	TO_CACHE:   96563884
L0D WQ	ACCESS:   12822617	FORWARD:          0	MERGED:          0	TO_CACHE:   12822617

L1D SPEC fills:          0  NON-SPEC fills:     125225
L1D Test counter :          0
L1D Leapfrog:          0
L1D MSHR merge:     263320
L1D TOTAL     ACCESS:  169391259  HIT:  161462389  MISS:    7928870  HIT %:    95.3192  MISS %:     4.6808   MPKI: 39.6443
L1D LOAD      TOTAL       ACCESS:   62651973  HIT:   58529282  MISS:    4122691  HIT %:    93.4197  MISS %:    6.58031   MPKI: 20.6135
L1D LOAD      NON_SPEC    ACCESS:    4253934  HIT:    4128709  MISS:     125225  HIT %:    97.0563  MISS %:    2.94375   MPKI: 0.626125
L1D LOAD      SPEC        ACCESS:   58398039  HIT:   54400573  MISS:    3997466  HIT %:    93.1548  MISS %:    6.84521   MPKI: 19.9873
L1D RFO       NON_SPEC    ACCESS:    9932766  HIT:    9894486  MISS:      38280  HIT %:    99.6146  MISS %:   0.385391   MPKI: 0.1914
L1D COMMIT LOAD NON_SPEC    ACCESS:   52377926  HIT:   51573985  MISS:     803941  HIT %:    98.4651  MISS %:    1.53489   MPKI: 4.0197
L1D COMMIT WRITE NON_SPEC    ACCESS:   44428594  HIT:   41464636  MISS:    2963958  HIT %:    93.3287  MISS %:    6.67128   MPKI: 14.8198
L1D PREFETCH  REQUESTED:          0  ISSUED:          0  USEFUL:          0  USELESS:          0
L1D USEFUL LOAD PREFETCHES:          0 PREFETCH ISSUED TO LOWER LEVEL:          0  ACCURACY: -nan
L1D TIMELY PREFETCHES:          0 LATE PREFETCHES: 0 DROPPED PREFETCHES: 0
L1D COMMIT LATE PREFETCHES: 0 NORMAL LATE: 0 MISSED OPPORTUNITY: 0 UNCOVERED: 4122691
L1D PREFETCHES SAME FILL-ORIGIN LEVEL: 0 DIFFERENT FILL-ORIGIN LEVEL: 0
L1D AVERAGE MISS LATENCY: 39.7052 cycles
L1D AVERAGE MISS LATENCY LOAD: 69.3925 cycles
L1D AVERAGE MISS LATENCY PREFETCH: -nan cycles
L1D AVERAGE MSHR OCCUPANCY: 0.544282
L1D MSHR FULL: 0
L1D RQ	ACCESS:  140366741	FORWARD:          0	MERGED:   23725901	TO_CACHE:  115395952
L1D WQ	ACCESS:   57298273	FORWARD:    1244888	MERGED:    2522506	TO_CACHE:   54775767

L1D UNIQUE REGIONS ACCESSED: 0
L1D REGIONS CONFLICTS: 0
L1D Cross Page Prefetch Requests: 0
L1D Same Page Prefetch Requests: 0
L1D ROI Sum of L1D PQ occupancy: 0
L1D PREFETCHES PUSHED FROM L2C: 0
L1I SPEC fills:          0  NON-SPEC fills:          0
L1I Test counter :          0
L1I Leapfrog:          0
L1I MSHR merge:          0
L1I TOTAL     ACCESS:   27930515  HIT:   27930515  MISS:          0  HIT %:        100  MISS %:          0   MPKI: 0
L1I LOAD      TOTAL       ACCESS:   27930515  HIT:   27930515  MISS:          0  HIT %:        100  MISS %:          0   MPKI: 0
L1I LOAD      NON_SPEC    ACCESS:   27930515  HIT:   27930515  MISS:          0  HIT %:        100  MISS %:          0   MPKI: 0
L1I PREFETCH  REQUESTED:          0  ISSUED:          0  USEFUL:          0  USELESS:          0
L1I USEFUL LOAD PREFETCHES:          0 PREFETCH ISSUED TO LOWER LEVEL:          0  ACCURACY: -nan
L1I TIMELY PREFETCHES:          0 LATE PREFETCHES: 0 DROPPED PREFETCHES: 0
L1I COMMIT LATE PREFETCHES: 0 NORMAL LATE: 0 MISSED OPPORTUNITY: 0 UNCOVERED: 0
L1I PREFETCHES SAME FILL-ORIGIN LEVEL: 0 DIFFERENT FILL-ORIGIN LEVEL: 0
L1I AVERAGE MISS LATENCY: -nan cycles
L1I AVERAGE MISS LATENCY LOAD: -nan cycles
L1I AVERAGE MISS LATENCY PREFETCH: -nan cycles
L1I AVERAGE MSHR OCCUPANCY: 0
L1I MSHR FULL: 0
L1I RQ	ACCESS:   62439431	FORWARD:          0	MERGED:   34508914	TO_CACHE:   27930517

BTB SPEC fills:          0  NON-SPEC fills:          0
BTB Test counter :          0
BTB Leapfrog:          0
BTB MSHR merge:          0
BTB TOTAL     ACCESS:    2243766  HIT:    2243761  MISS:          5  HIT %:    99.9998  MISS %: 0.00022284   MPKI: 2.5e-05
BTB BRANCH_DIRECT_JUMP	ACCESS:     160245  HIT:     160244  MISS:          1
BTB BRANCH_INDIRECT	ACCESS:          0  HIT:          0  MISS:          0
BTB BRANCH_CONDITIONAL	ACCESS:    2083521  HIT:    2083517  MISS:          4
BTB BRANCH_DIRECT_CALL	ACCESS:          0  HIT:          0  MISS:          0
BTB BRANCH_INDIRECT_CALL	ACCESS:          0  HIT:          0  MISS:          0
BTB BRANCH_RETURN	ACCESS:          0  HIT:          0  MISS:          0
BTB BRANCH_OTHER ACCESS:          0  HIT:          0  MISS:          0

L2C SPEC fills:          0  NON-SPEC fills:      99387
L2C Test counter :          0
L2C Leapfrog:          0
L2C MSHR merge:      31662
L2C TOTAL     ACCESS:   15176841  HIT:    9187599  MISS:    5989242  HIT %:     60.537  MISS %:     39.463   MPKI: 29.9462
L2C LOAD      TOTAL       ACCESS:    4122691  HIT:    2573175  MISS:    1549516  HIT %:    62.4149  MISS %:    37.5851   MPKI: 7.74758
L2C LOAD      NON_SPEC    ACCESS:     125225  HIT:      25838  MISS:      99387  HIT %:    20.6333  MISS %:    79.3667   MPKI: 0.496935
L2C LOAD      SPEC        ACCESS:    3997466  HIT:    2547337  MISS:    1450129  HIT %:    63.7238  MISS %:    36.2762   MPKI: 7.25064
L2C RFO       NON_SPEC    ACCESS:      38280  HIT:      38006  MISS:        274  HIT %:    99.2842  MISS %:   0.715778   MPKI: 0.00137
L2C PREFETCH  NON_SPEC    ACCESS:    2982667  HIT:       8577  MISS:    2974090  HIT %:   0.287561  MISS %:    99.7124   MPKI: 14.8704
L2C WRITEBACK NON_SPEC    ACCESS:     390617  HIT:     390611  MISS:          6  HIT %:    99.9985  MISS %: 0.00153603   MPKI: 3e-05
L2C CLEAN_EVICTION NON_SPEC    ACCESS:    3443643  HIT:    2247141  MISS:    1196502  HIT %:    65.2548  MISS %:    34.7452   MPKI: 5.98251
L2C COMMIT LOAD NON_SPEC    ACCESS:     803941  HIT:     621392  MISS:     182549  HIT %:    77.2932  MISS %:    22.7068   MPKI: 0.912745
L2C LOAD TRANSLATION NON_SPEC    ACCESS:    3395002  HIT:    3308697  MISS:      86305  HIT %:    97.4579  MISS %:    2.54212   MPKI: 0.431525
L2C PREFETCH  REQUESTED:    3047994  ISSUED:    3047994  USEFUL:    2371035  USELESS:     603013
L2C USEFUL LOAD PREFETCHES:    2371035 PREFETCH ISSUED TO LOWER LEVEL:    3005762  ACCURACY: 78.883
L2C TIMELY PREFETCHES:    2371035 LATE PREFETCHES: 31662 DROPPED PREFETCHES: 0
L2C COMMIT LATE PREFETCHES: 0 NORMAL LATE: 31662 MISSED OPPORTUNITY: 0 UNCOVERED: 1517854
L2C PREFETCHES SAME FILL-ORIGIN LEVEL: 3005762 DIFFERENT FILL-ORIGIN LEVEL: 0
L2C AVERAGE MISS LATENCY: 152.624 cycles
L2C AVERAGE MISS LATENCY LOAD: 153.074 cycles
L2C AVERAGE MISS LATENCY PREFETCH: 215.73 cycles
L2C AVERAGE MSHR OCCUPANCY: 3.42035
L2C MSHR FULL: 0.00693106
L2C RQ	ACCESS:    8359914	FORWARD:          0	MERGED:          0	TO_CACHE:    8359914
L2C WQ	ACCESS:    3835602	FORWARD:          0	MERGED:       1342	TO_CACHE:    3834260
L2C PQ	ACCESS:    3047994	FORWARD:          0	MERGED:          0	TO_CACHE:    3047994

L2C Instructions Evicting Data 0
L2C Translations Evicting Data 84997
L2C Data Evicting Data 3194426
L2C Instructions Evicting Instructions 0
L2C Translations Evicting Instructions 0
L2C Data Evicting Instructions 0
L2C Instructions Evicting Translations 0
L2C Translations Evicting Translations 1308
L2C Data Evicting Translations 61874
L2C Dense regions hint from L2: 0
PSCL5 SPEC fills:          0  NON-SPEC fills:          0
PSCL5 Test counter :          0
PSCL5 Leapfrog:          0
PSCL5 MSHR merge:          0
PSCL5 TOTAL     ACCESS:          0  HIT:          0  MISS:          0  HIT %:       -nan  MISS %:       -nan   MPKI: 0
PSCL5 PREFETCH  REQUESTED:          0  ISSUED:          0  USEFUL:          0  USELESS:          0
PSCL5 USEFUL LOAD PREFETCHES:          0 PREFETCH ISSUED TO LOWER LEVEL:          0  ACCURACY: -nan
PSCL5 TIMELY PREFETCHES:          0 LATE PREFETCHES: 0 DROPPED PREFETCHES: 0
PSCL5 COMMIT LATE PREFETCHES: 0 NORMAL LATE: 0 MISSED OPPORTUNITY: 0 UNCOVERED: 0
PSCL5 PREFETCHES SAME FILL-ORIGIN LEVEL: 0 DIFFERENT FILL-ORIGIN LEVEL: 0

PSCL4 SPEC fills:          0  NON-SPEC fills:          0
PSCL4 Test counter :          0
PSCL4 Leapfrog:          0
PSCL4 MSHR merge:          0
PSCL4 TOTAL     ACCESS:          0  HIT:          0  MISS:          0  HIT %:       -nan  MISS %:       -nan   MPKI: 0
PSCL4 PREFETCH  REQUESTED:          0  ISSUED:          0  USEFUL:          0  USELESS:          0
PSCL4 USEFUL LOAD PREFETCHES:          0 PREFETCH ISSUED TO LOWER LEVEL:          0  ACCURACY: -nan
PSCL4 TIMELY PREFETCHES:          0 LATE PREFETCHES: 0 DROPPED PREFETCHES: 0
PSCL4 COMMIT LATE PREFETCHES: 0 NORMAL LATE: 0 MISSED OPPORTUNITY: 0 UNCOVERED: 0
PSCL4 PREFETCHES SAME FILL-ORIGIN LEVEL: 0 DIFFERENT FILL-ORIGIN LEVEL: 0

PSCL3 SPEC fills:          0  NON-SPEC fills:          0
PSCL3 Test counter :          0
PSCL3 Leapfrog:          0
PSCL3 MSHR merge:          0
PSCL3 TOTAL     ACCESS:          0  HIT:          0  MISS:          0  HIT %:       -nan  MISS %:       -nan   MPKI: 0
PSCL3 PREFETCH  REQUESTED:          0  ISSUED:          0  USEFUL:          0  USELESS:          0
PSCL3 USEFUL LOAD PREFETCHES:          0 PREFETCH ISSUED TO LOWER LEVEL:          0  ACCURACY: -nan
PSCL3 TIMELY PREFETCHES:          0 LATE PREFETCHES: 0 DROPPED PREFETCHES: 0
PSCL3 COMMIT LATE PREFETCHES: 0 NORMAL LATE: 0 MISSED OPPORTUNITY: 0 UNCOVERED: 0
PSCL3 PREFETCHES SAME FILL-ORIGIN LEVEL: 0 DIFFERENT FILL-ORIGIN LEVEL: 0

PSCL2 SPEC fills:          0  NON-SPEC fills:          0
PSCL2 Test counter :          0
PSCL2 Leapfrog:          0
PSCL2 MSHR merge:          0
PSCL2 TOTAL     ACCESS:          0  HIT:          0  MISS:          0  HIT %:       -nan  MISS %:       -nan   MPKI: 0
PSCL2 PREFETCH  REQUESTED:          0  ISSUED:          0  USEFUL:          0  USELESS:          0
PSCL2 USEFUL LOAD PREFETCHES:          0 PREFETCH ISSUED TO LOWER LEVEL:          0  ACCURACY: -nan
PSCL2 TIMELY PREFETCHES:          0 LATE PREFETCHES: 0 DROPPED PREFETCHES: 0
PSCL2 COMMIT LATE PREFETCHES: 0 NORMAL LATE: 0 MISSED OPPORTUNITY: 0 UNCOVERED: 0
PSCL2 PREFETCHES SAME FILL-ORIGIN LEVEL: 0 DIFFERENT FILL-ORIGIN LEVEL: 0

LLC SPEC fills:          0  NON-SPEC fills:      63312
LLC Test counter :          0
LLC Leapfrog:          0
LLC MSHR merge:          0
LLC TOTAL     ACCESS:    8587530  HIT:    3674414  MISS:    4913116  HIT %:    42.7878  MISS %:    57.2122   MPKI: 24.5656
LLC LOAD      TOTAL       ACCESS:    1517854  HIT:     360237  MISS:    1157617  HIT %:    23.7333  MISS %:    76.2667   MPKI: 5.78808
LLC LOAD      NON_SPEC    ACCESS:      99366  HIT:      36054  MISS:      63312  HIT %:     36.284  MISS %:     63.716   MPKI: 0.31656
LLC LOAD      SPEC        ACCESS:    1418488  HIT:     324183  MISS:    1094305  HIT %:    22.8541  MISS %:    77.1459   MPKI: 5.47152
LLC RFO       NON_SPEC    ACCESS:        274  HIT:         25  MISS:        249  HIT %:    9.12409  MISS %:    90.8759   MPKI: 0.001245
LLC PREFETCH  NON_SPEC    ACCESS:    3005752  HIT:     440038  MISS:    2565714  HIT %:    14.6399  MISS %:    85.3601   MPKI: 12.8286
LLC WRITEBACK NON_SPEC    ACCESS:     390409  HIT:     390409  MISS:          0  HIT %:        100  MISS %:          0   MPKI: 0
LLC CLEAN_EVICTION NON_SPEC    ACCESS:    3404387  HIT:    2353555  MISS:    1050832  HIT %:     69.133  MISS %:     30.867   MPKI: 5.25416
LLC COMMIT LOAD NON_SPEC    ACCESS:     182549  HIT:     116709  MISS:      65840  HIT %:     63.933  MISS %:     36.067   MPKI: 0.3292
LLC LOAD TRANSLATION NON_SPEC    ACCESS:      86305  HIT:      13441  MISS:      72864  HIT %:    15.5738  MISS %:    84.4262   MPKI: 0.36432
LLC PREFETCH  REQUESTED:          0  ISSUED:          0  USEFUL:      13065  USELESS:    2552973
LLC USEFUL LOAD PREFETCHES:      13065 PREFETCH ISSUED TO LOWER LEVEL:    2565724  ACCURACY: 0.509213
LLC TIMELY PREFETCHES:      13065 LATE PREFETCHES: 0 DROPPED PREFETCHES: 0
LLC COMMIT LATE PREFETCHES: 0 NORMAL LATE: 0 MISSED OPPORTUNITY: 0 UNCOVERED: 1157617
LLC PREFETCHES SAME FILL-ORIGIN LEVEL: 0 DIFFERENT FILL-ORIGIN LEVEL: 0
LLC AVERAGE MISS LATENCY: 144.469 cycles
LLC AVERAGE MISS LATENCY LOAD: 156.604 cycles
LLC AVERAGE MISS LATENCY PREFETCH: 195.425 cycles
LLC AVERAGE MSHR OCCUPANCY: 2.97168
LLC MSHR FULL: 0
LLC RQ	ACCESS:    1786982	FORWARD:          0	MERGED:          0	TO_CACHE:    1786982
LLC WQ	ACCESS:    3794796	FORWARD:          0	MERGED:          0	TO_CACHE:    3794796
LLC PQ	ACCESS:    3005762	FORWARD:          0	MERGED:          0	TO_CACHE:    3005762

LLC Dense regions hint to LLC: 0

RAW hits: 422600
Loads Generated: 128041519
Loads sent to L1D: 127618911
Stores Generated: 12822620
Stores sent to L1D: 12822617
Major fault: 0 Minor fault: 641201
Allocated PAGES: 641201
Total Load insts: 159482555
Total Non-spec loads: 7021885
Percentage of speculative loads: 95.5971

LeapFrogging counter: 2765065
Commit hits: 44475656 miss: 77451447
Commit hit %: 36.4773 miss %: 63.5227
Commits not translated: 0
Loads retired: 4122691
Stores retired: 12822617
Cache fills: 4122691
L1D response latency: 69.3925 cycles
Load retirement latency: 319.044 cycles
OOO test counter: 0
Discarded buffer inserts: 44475656 hits: 198650 hit %: 0.446649
Filter prediction accuracy: -nan
[Bingo] PHT Access: 1361870
[Bingo] PHT Hit PC+Addr: 14596
[Bingo] PHT Hit PC+Offs: 1328323
[Bingo] PHT Miss: 18951
[Bingo] Prefetch PC+Addr: 0
[Bingo] Prefetch PC+Offs: 0
[Bingo] Useful PC+Addr: 0
[Bingo] Useful PC+Offs: 0
[Bingo] Useless PC+Addr: 0
[Bingo] Useless PC+Offs: 0
[Bingo] L1 Prefetch per Region: 0
[Bingo] L2 Prefetch per Region: 3.28086
[Bingo] L3 Prefetch per Region: 0
[Bingo] No Prefetch per Region: 28.7191
[Bingo] Number of Voters Mean: 14.0782
[Bingo] Number of Voters SD: 7.95303
PHT read accesses: 21515449
PHT write accesses: 1293784
AT read accesses: 2703417
AT write accesses: 3991960
FT read accesses: 4012178
FT write accesses: 1361870
PS read accesses: 2748846
PS write accesses: 1342919
PHT tag read accesses: 62827503
PHT tag write accesses: 1308380
AT tag read accesses: 200651052
AT tag write accesses: 3997201
FT tag read accesses: 170670161
FT tag write accesses: 4017619
PS tag read accesses: 118583152
PS tag write accesses: 4091444

DRAM Statistics
 CHANNEL 0
 RQ ROW_BUFFER_HIT:    1548488  ROW_BUFFER_MISS:    2313553
 DBUS_CONGESTED:       7468
 WQ ROW_BUFFER_HIT:     219619  ROW_BUFFER_MISS:    2947677  FULL:      39754

 AVG_CONGESTED_CYCLE: 5
 All warmup complete: 2
Channel 0 Bank busy for read cycles: 0
Channel 0 Bank busy for write cycles: 0
Channel 0
Rank 0
0banks busy for read cycles: 42666921
0banks busy for write cycles: 217105
1banks busy for read cycles: 34333181
1banks busy for write cycles: 24888422
2banks busy for read cycles: 28927544
2banks busy for write cycles: 17876267
3banks busy for read cycles: 35892209
3banks busy for write cycles: 15617565
4banks busy for read cycles: 11267535
4banks busy for write cycles: 15020934
5banks busy for read cycles: 8377734
5banks busy for write cycles: 14679438
6banks busy for read cycles: 7008770
6banks busy for write cycles: 13442940
7banks busy for read cycles: 4752962
7banks busy for write cycles: 11703235
8banks busy for read cycles: 8178342
8banks busy for write cycles: 21172886

CPU 0 Branch Prediction Accuracy: 99.9931% MPKI: 0.00083 Average ROB Occupancy at Mispredict: 340.783
Branch types
NOT_BRANCH: 197595958 98.798%
BRANCH_DIRECT_JUMP: 160245 0.0801225%
BRANCH_INDIRECT: 0 0%
BRANCH_CONDITIONAL: 2243766 1.12188%
BRANCH_DIRECT_CALL: 0 0%
BRANCH_INDIRECT_CALL: 0 0%
BRANCH_RETURN: 0 0%
BRANCH_OTHER: 0 0%

DRAM PAGES: 1048576
Allocated PAGES: 641201
