
*** ChampSim Multicore Out-of-Order Simulator ***

Warmup Instructions: 50000000
Simulation Instructions: 200000000
Number of CPUs: 1
LLC sets: 2048
LLC ways: 16
L0D sets: 16
L0D ways: 2
ROB size: 352
LQ size: 128
SQ size: 72
Secure Berti: OFF
Berti: OFF
Berti Fill: OFF
On commit prefetching: OFF
Hit-based filter: OFF
Time-guarding: ON
Free-slotting: ON
Leap-frogging: ON
Train prefetcher on L0D bypass: OFF
No translation penalty for prefetchers: OFF
Prefetch to L0D only: OFF
Prefetch to L1D only: OFF
Clean evictions: ON
Commit loads: ON
Commit write: ON
Fill commit loads to L2C, LLC: ON
DRAM IO FREQUENCY: 6400
ROB SIZE: 352
Off-chip DRAM Size: 4096 MB Channels: 1 Width: 64-bit Data Rate: 6400 MT/s
CPU 0 runs /home/sumon/secure_berti/GhostMinion/../../traces/spec/649.fotonik3d_s-1176B.champsimtrace.xz
.xz
BTB has LRU replacement policy
ITLB has LRU replacement policy
DTLB has LRU replacement policy
STLB has LRU replacement policy
L1I has LRU replacement policy
L0D has LRU replacement policy
L1D has LRU replacement policy
Bingo PHT WAYS: 16 and PHT_SIZE: 16384
L2C has LRU replacement policy
LLC has LRU replacement policy
Heartbeat CPU 0 instructions: 10000003 cycles: 3148498 heartbeat IPC: 3.17612 cumulative IPC: 3.17612 (Simulation time: 0 hr 0 min 59 sec) 
Heartbeat CPU 0 instructions: 20000002 cycles: 6295946 heartbeat IPC: 3.17718 cumulative IPC: 3.17665 (Simulation time: 0 hr 1 min 58 sec) 
Heartbeat CPU 0 instructions: 30000000 cycles: 9443440 heartbeat IPC: 3.17713 cumulative IPC: 3.17681 (Simulation time: 0 hr 3 min 1 sec) 
Heartbeat CPU 0 instructions: 40000003 cycles: 12590975 heartbeat IPC: 3.17709 cumulative IPC: 3.17688 (Simulation time: 0 hr 4 min 8 sec) 
Heartbeat CPU 0 instructions: 50000001 cycles: 15738500 heartbeat IPC: 3.1771 cumulative IPC: 3.17692 (Simulation time: 0 hr 5 min 16 sec) 

Warmup complete CPU 0 instructions: 50000001 cycles: 15738500 (Simulation time: 0 hr 5 min 16 sec) 

Heartbeat CPU 0 instructions: 60000000 cycles: 25725128 heartbeat IPC: 1.00134 cumulative IPC: 1.00134 (Simulation time: 0 hr 6 min 39 sec) 
Heartbeat CPU 0 instructions: 70000000 cycles: 35710802 heartbeat IPC: 1.00143 cumulative IPC: 1.00139 (Simulation time: 0 hr 8 min 1 sec) 
Heartbeat CPU 0 instructions: 80000002 cycles: 45697285 heartbeat IPC: 1.00135 cumulative IPC: 1.00138 (Simulation time: 0 hr 9 min 24 sec) 
Heartbeat CPU 0 instructions: 90000000 cycles: 55680969 heartbeat IPC: 1.00163 cumulative IPC: 1.00144 (Simulation time: 0 hr 10 min 47 sec) 
Heartbeat CPU 0 instructions: 100000000 cycles: 65668089 heartbeat IPC: 1.00129 cumulative IPC: 1.00141 (Simulation time: 0 hr 12 min 10 sec) 
Heartbeat CPU 0 instructions: 110000000 cycles: 75653152 heartbeat IPC: 1.0015 cumulative IPC: 1.00142 (Simulation time: 0 hr 13 min 34 sec) 
Heartbeat CPU 0 instructions: 120000001 cycles: 85639673 heartbeat IPC: 1.00135 cumulative IPC: 1.00141 (Simulation time: 0 hr 14 min 56 sec) 
Heartbeat CPU 0 instructions: 130000002 cycles: 95624801 heartbeat IPC: 1.00149 cumulative IPC: 1.00142 (Simulation time: 0 hr 16 min 19 sec) 
Heartbeat CPU 0 instructions: 140000003 cycles: 105614472 heartbeat IPC: 1.00103 cumulative IPC: 1.00138 (Simulation time: 0 hr 17 min 43 sec) 
Heartbeat CPU 0 instructions: 150000000 cycles: 115598302 heartbeat IPC: 1.00162 cumulative IPC: 1.0014 (Simulation time: 0 hr 19 min 6 sec) 
Heartbeat CPU 0 instructions: 160000000 cycles: 125586238 heartbeat IPC: 1.00121 cumulative IPC: 1.00139 (Simulation time: 0 hr 20 min 29 sec) 
Heartbeat CPU 0 instructions: 170000000 cycles: 135570274 heartbeat IPC: 1.0016 cumulative IPC: 1.0014 (Simulation time: 0 hr 21 min 52 sec) 
Heartbeat CPU 0 instructions: 180000001 cycles: 145554270 heartbeat IPC: 1.0016 cumulative IPC: 1.00142 (Simulation time: 0 hr 23 min 15 sec) 
Heartbeat CPU 0 instructions: 190000002 cycles: 155540931 heartbeat IPC: 1.00134 cumulative IPC: 1.00141 (Simulation time: 0 hr 24 min 37 sec) 
Heartbeat CPU 0 instructions: 200000003 cycles: 165526443 heartbeat IPC: 1.00145 cumulative IPC: 1.00142 (Simulation time: 0 hr 25 min 59 sec) 
Heartbeat CPU 0 instructions: 210000000 cycles: 175512563 heartbeat IPC: 1.00139 cumulative IPC: 1.00141 (Simulation time: 0 hr 27 min 20 sec) 
Heartbeat CPU 0 instructions: 220000000 cycles: 185497406 heartbeat IPC: 1.00152 cumulative IPC: 1.00142 (Simulation time: 0 hr 28 min 41 sec) 
Heartbeat CPU 0 instructions: 230000002 cycles: 195483957 heartbeat IPC: 1.00135 cumulative IPC: 1.00142 (Simulation time: 0 hr 29 min 58 sec) 
Heartbeat CPU 0 instructions: 240000002 cycles: 205468331 heartbeat IPC: 1.00157 cumulative IPC: 1.00142 (Simulation time: 0 hr 31 min 14 sec) 
Heartbeat CPU 0 instructions: 250000000 cycles: 215454750 heartbeat IPC: 1.00136 cumulative IPC: 1.00142 (Simulation time: 0 hr 32 min 29 sec) 
Finished CPU 0 instructions: 200000003 cycles: 199716251 cumulative IPC: 1.00142 (Simulation time: 0 hr 32 min 29 sec) 
 Instruction ID: 250000145

ChampSim completed all CPUs

Region of Interest Statistics

CPU 0 cumulative IPC: 1.00142 instructions: 200000003 cycles: 199716251
ITLB SPEC fills:          0  NON-SPEC fills:          0
ITLB Test counter :          0
ITLB Leapfrog:          0
ITLB MSHR merge:          0
ITLB TOTAL     ACCESS:   28070160  HIT:   28070160  MISS:          0  HIT %:        100  MISS %:          0   MPKI: 0
ITLB LOAD TRANSLATION NON_SPEC    ACCESS:   28070160  HIT:   28070160  MISS:          0  HIT %:        100  MISS %:          0   MPKI: 0
ITLB PREFETCH  REQUESTED:          0  ISSUED:          0  USEFUL:          0  USELESS:          0
ITLB USEFUL LOAD PREFETCHES:          0 PREFETCH ISSUED TO LOWER LEVEL:          0  ACCURACY: -nan
ITLB TIMELY PREFETCHES:          0 LATE PREFETCHES: 0 DROPPED PREFETCHES: 0
ITLB COMMIT LATE PREFETCHES: 0 NORMAL LATE: 0 MISSED OPPORTUNITY: 0 UNCOVERED: 0
ITLB PREFETCHES SAME FILL-ORIGIN LEVEL: 0 DIFFERENT FILL-ORIGIN LEVEL: 0
ITLB AVERAGE MISS LATENCY: -nan cycles
ITLB AVERAGE MISS LATENCY LOAD: -nan cycles
ITLB AVERAGE MISS LATENCY PREFETCH: -nan cycles
ITLB AVERAGE MSHR OCCUPANCY: 0
ITLB MSHR FULL: 0
ITLB RQ	ACCESS:   35090220	FORWARD:          0	MERGED:    7020061	TO_CACHE:   28070159

DTLB SPEC fills:          0  NON-SPEC fills:          0
DTLB Test counter :          0
DTLB Leapfrog:          0
DTLB MSHR merge:          0
DTLB TOTAL     ACCESS:   36711183  HIT:   36664211  MISS:      46972  HIT %:     99.872  MISS %:    0.12795   MPKI: 0.23486
DTLB LOAD TRANSLATION NON_SPEC    ACCESS:   36711183  HIT:   36664211  MISS:      46972  HIT %:     99.872  MISS %:    0.12795   MPKI: 0.23486
DTLB PREFETCH  REQUESTED:          0  ISSUED:          0  USEFUL:          0  USELESS:          0
DTLB USEFUL LOAD PREFETCHES:          0 PREFETCH ISSUED TO LOWER LEVEL:          0  ACCURACY: -nan
DTLB TIMELY PREFETCHES:          0 LATE PREFETCHES: 0 DROPPED PREFETCHES: 0
DTLB COMMIT LATE PREFETCHES: 0 NORMAL LATE: 0 MISSED OPPORTUNITY: 0 UNCOVERED: 0
DTLB PREFETCHES SAME FILL-ORIGIN LEVEL: 0 DIFFERENT FILL-ORIGIN LEVEL: 0
DTLB AVERAGE MISS LATENCY: 114.559 cycles
DTLB AVERAGE MISS LATENCY LOAD: -nan cycles
DTLB AVERAGE MISS LATENCY PREFETCH: -nan cycles
DTLB AVERAGE MSHR OCCUPANCY: 0.00722018
DTLB MSHR FULL: 0
DTLB RQ	ACCESS:   57531971	FORWARD:          0	MERGED:   20817391	TO_CACHE:   36714580

STLB SPEC fills:          0  NON-SPEC fills:          0
STLB Test counter :          0
STLB Leapfrog:          0
STLB MSHR merge:          0
STLB TOTAL     ACCESS:      46972  HIT:      19521  MISS:      27451  HIT %:    41.5588  MISS %:    58.4412   MPKI: 0.137255
STLB LOAD TRANSLATION NON_SPEC    ACCESS:      46972  HIT:      19521  MISS:      27451  HIT %:    41.5588  MISS %:    58.4412   MPKI: 0.137255
STLB PREFETCH  REQUESTED:          0  ISSUED:          0  USEFUL:          0  USELESS:          0
STLB USEFUL LOAD PREFETCHES:          0 PREFETCH ISSUED TO LOWER LEVEL:          0  ACCURACY: -nan
STLB TIMELY PREFETCHES:          0 LATE PREFETCHES: 0 DROPPED PREFETCHES: 0
STLB COMMIT LATE PREFETCHES: 0 NORMAL LATE: 0 MISSED OPPORTUNITY: 0 UNCOVERED: 0
STLB PREFETCHES SAME FILL-ORIGIN LEVEL: 0 DIFFERENT FILL-ORIGIN LEVEL: 0
STLB AVERAGE MISS LATENCY: 180.596 cycles
STLB AVERAGE MISS LATENCY LOAD: -nan cycles
STLB AVERAGE MISS LATENCY PREFETCH: -nan cycles
STLB AVERAGE MSHR OCCUPANCY: 0.00425786
STLB MSHR FULL: 0
STLB RQ	ACCESS:      46972	FORWARD:          0	MERGED:          0	TO_CACHE:      46972

STLB Hit, L1D data hit: 0
STLB Hit, L2C data hit: 0
STLB Hit, LLC data hit: 0
STLB Hit, LLC data miss: 0
STLB STLB hints to L2: 0
L0D SPEC fills:   25771035  NON-SPEC fills:          0
L0D TimeGuard Request with older TS:      15751 Restricted eviction:        413 read:     201984
L0D Test counter :          0
L0D Leapfrog:          0
L0D MSHR merge:    4198933
L0D TOTAL     ACCESS:   39291941  HIT:   10027485  MISS:   29264456  HIT %:    25.5205  MISS %:    74.4795   MPKI: 146.322
L0D LOAD      TOTAL       ACCESS:   39291941  HIT:   10027485  MISS:   29264456  HIT %:    25.5205  MISS %:    74.4795   MPKI: 146.322
L0D LOAD      NON_SPEC    ACCESS:    3494492  HIT:       1484  MISS:    3493008  HIT %:  0.0424668  MISS %:    99.9575   MPKI: 17.465
L0D LOAD      SPEC        ACCESS:   35797449  HIT:   10026001  MISS:   25771448  HIT %:    28.0076  MISS %:    71.9924   MPKI: 128.857
L0D PREFETCH  REQUESTED:          0  ISSUED:          0  USEFUL:          0  USELESS:          0
L0D USEFUL LOAD PREFETCHES:          0 PREFETCH ISSUED TO LOWER LEVEL:          0  ACCURACY: -nan
L0D TIMELY PREFETCHES:          0 LATE PREFETCHES: 0 DROPPED PREFETCHES: 0
L0D COMMIT LATE PREFETCHES: 0 NORMAL LATE: 0 MISSED OPPORTUNITY: 0 UNCOVERED: 29264456
L0D PREFETCHES SAME FILL-ORIGIN LEVEL: 0 DIFFERENT FILL-ORIGIN LEVEL: 0
L0D AVERAGE MISS LATENCY: 6.97984 cycles
L0D AVERAGE MISS LATENCY LOAD: 6.97984 cycles
L0D AVERAGE MISS LATENCY PREFETCH: -nan cycles
L0D AVERAGE MSHR OCCUPANCY: 1.11255
L0D MSHR FULL: 3.21907e-07
L0D RQ	ACCESS:   70166258	FORWARD:          0	MERGED:   26675385	TO_CACHE:   43490873
L0D WQ	ACCESS:   14041098	FORWARD:          0	MERGED:          0	TO_CACHE:   14041098

L1D SPEC fills:          0  NON-SPEC fills:    1142684
L1D Test counter :          0
L1D Leapfrog:          0
L1D MSHR merge:       6172
L1D TOTAL     ACCESS:   98723018  HIT:   94174210  MISS:    4548808  HIT %:    95.3924  MISS %:    4.60765   MPKI: 22.744
L1D LOAD      TOTAL       ACCESS:   29258284  HIT:   26336101  MISS:    2922183  HIT %:    90.0125  MISS %:    9.98754   MPKI: 14.6109
L1D LOAD      NON_SPEC    ACCESS:    3492892  HIT:    2350208  MISS:    1142684  HIT %:    67.2854  MISS %:    32.7146   MPKI: 5.71342
L1D LOAD      SPEC        ACCESS:   25765392  HIT:   23985893  MISS:    1779499  HIT %:    93.0935  MISS %:    6.90655   MPKI: 8.89749
L1D RFO       NON_SPEC    ACCESS:   13760760  HIT:   13758060  MISS:       2700  HIT %:    99.9804  MISS %:   0.019621   MPKI: 0.0135
L1D COMMIT LOAD NON_SPEC    ACCESS:   29951194  HIT:   29833682  MISS:     117512  HIT %:    99.6077  MISS %:   0.392345   MPKI: 0.58756
L1D COMMIT WRITE NON_SPEC    ACCESS:   25752780  HIT:   24246367  MISS:    1506413  HIT %:    94.1505  MISS %:    5.84952   MPKI: 7.53206
L1D PREFETCH  REQUESTED:          0  ISSUED:          0  USEFUL:          0  USELESS:          0
L1D USEFUL LOAD PREFETCHES:          0 PREFETCH ISSUED TO LOWER LEVEL:          0  ACCURACY: -nan
L1D TIMELY PREFETCHES:          0 LATE PREFETCHES: 0 DROPPED PREFETCHES: 0
L1D COMMIT LATE PREFETCHES: 0 NORMAL LATE: 0 MISSED OPPORTUNITY: 0 UNCOVERED: 2922183
L1D PREFETCHES SAME FILL-ORIGIN LEVEL: 0 DIFFERENT FILL-ORIGIN LEVEL: 0
L1D AVERAGE MISS LATENCY: 11.8092 cycles
L1D AVERAGE MISS LATENCY LOAD: 17.7623 cycles
L1D AVERAGE MISS LATENCY PREFETCH: -nan cycles
L1D AVERAGE MSHR OCCUPANCY: 0.152037
L1D MSHR FULL: 0
L1D RQ	ACCESS:   66577589	FORWARD:          0	MERGED:    7057996	TO_CACHE:   59217949
L1D WQ	ACCESS:   39800547	FORWARD:     301644	MERGED:     280458	TO_CACHE:   39520089

L1D UNIQUE REGIONS ACCESSED: 0
L1D REGIONS CONFLICTS: 0
L1D Cross Page Prefetch Requests: 0
L1D Same Page Prefetch Requests: 0
L1D ROI Sum of L1D PQ occupancy: 0
L1D PREFETCHES PUSHED FROM L2C: 0
L1I SPEC fills:          0  NON-SPEC fills:          0
L1I Test counter :          0
L1I Leapfrog:          0
L1I MSHR merge:          0
L1I TOTAL     ACCESS:   35090219  HIT:   35090219  MISS:          0  HIT %:        100  MISS %:          0   MPKI: 0
L1I LOAD      TOTAL       ACCESS:   35090219  HIT:   35090219  MISS:          0  HIT %:        100  MISS %:          0   MPKI: 0
L1I LOAD      NON_SPEC    ACCESS:   35090219  HIT:   35090219  MISS:          0  HIT %:        100  MISS %:          0   MPKI: 0
L1I PREFETCH  REQUESTED:          0  ISSUED:          0  USEFUL:          0  USELESS:          0
L1I USEFUL LOAD PREFETCHES:          0 PREFETCH ISSUED TO LOWER LEVEL:          0  ACCURACY: -nan
L1I TIMELY PREFETCHES:          0 LATE PREFETCHES: 0 DROPPED PREFETCHES: 0
L1I COMMIT LATE PREFETCHES: 0 NORMAL LATE: 0 MISSED OPPORTUNITY: 0 UNCOVERED: 0
L1I PREFETCHES SAME FILL-ORIGIN LEVEL: 0 DIFFERENT FILL-ORIGIN LEVEL: 0
L1I AVERAGE MISS LATENCY: -nan cycles
L1I AVERAGE MISS LATENCY LOAD: -nan cycles
L1I AVERAGE MISS LATENCY PREFETCH: -nan cycles
L1I AVERAGE MSHR OCCUPANCY: 0
L1I MSHR FULL: 0
L1I RQ	ACCESS:   45627382	FORWARD:          0	MERGED:   10537162	TO_CACHE:   35090220

BTB SPEC fills:          0  NON-SPEC fills:          0
BTB Test counter :          0
BTB Leapfrog:          0
BTB MSHR merge:          0
BTB TOTAL     ACCESS:    3509175  HIT:    3509166  MISS:          9  HIT %:    99.9997  MISS %: 0.000256471   MPKI: 4.5e-05
BTB BRANCH_DIRECT_JUMP	ACCESS:        876  HIT:        874  MISS:          2
BTB BRANCH_INDIRECT	ACCESS:          0  HIT:          0  MISS:          0
BTB BRANCH_CONDITIONAL	ACCESS:    3506547  HIT:    3506544  MISS:          3
BTB BRANCH_DIRECT_CALL	ACCESS:        876  HIT:        874  MISS:          2
BTB BRANCH_INDIRECT_CALL	ACCESS:          0  HIT:          0  MISS:          0
BTB BRANCH_RETURN	ACCESS:        876  HIT:        874  MISS:          2
BTB BRANCH_OTHER ACCESS:          0  HIT:          0  MISS:          0

L2C SPEC fills:          0  NON-SPEC fills:      26819
L2C Test counter :          0
L2C Leapfrog:          0
L2C MSHR merge:      33732
L2C TOTAL     ACCESS:    8413109  HIT:    6588065  MISS:    1825044  HIT %:    78.3071  MISS %:    21.6929   MPKI: 9.12522
L2C LOAD      TOTAL       ACCESS:    2922183  HIT:    2829727  MISS:      92456  HIT %:    96.8361  MISS %:    3.16394   MPKI: 0.46228
L2C LOAD      NON_SPEC    ACCESS:    1142684  HIT:    1115865  MISS:      26819  HIT %:     97.653  MISS %:    2.34702   MPKI: 0.134095
L2C LOAD      SPEC        ACCESS:    1779499  HIT:    1713862  MISS:      65637  HIT %:    96.3115  MISS %:    3.68851   MPKI: 0.328185
L2C RFO       NON_SPEC    ACCESS:       2700  HIT:       2671  MISS:         29  HIT %:    98.9259  MISS %:    1.07407   MPKI: 0.000145
L2C PREFETCH  NON_SPEC    ACCESS:    2512745  HIT:     849605  MISS:    1663140  HIT %:    33.8118  MISS %:    66.1882   MPKI: 8.3157
L2C WRITEBACK NON_SPEC    ACCESS:     782074  HIT:     782074  MISS:          0  HIT %:        100  MISS %:          0   MPKI: 0
L2C CLEAN_EVICTION NON_SPEC    ACCESS:    1938730  HIT:    1872913  MISS:      65817  HIT %:    96.6051  MISS %:    3.39485   MPKI: 0.329085
L2C COMMIT LOAD NON_SPEC    ACCESS:     117512  HIT:     117433  MISS:         79  HIT %:    99.9328  MISS %:  0.0672272   MPKI: 0.000395
L2C LOAD TRANSLATION NON_SPEC    ACCESS:     137165  HIT:     133642  MISS:       3523  HIT %:    97.4316  MISS %:    2.56844   MPKI: 0.017615
L2C PREFETCH  REQUESTED:    2549853  ISSUED:    2549853  USEFUL:    1662070  USELESS:       1051
L2C USEFUL LOAD PREFETCHES:    1662070 PREFETCH ISSUED TO LOWER LEVEL:    1696872  ACCURACY: 97.949
L2C TIMELY PREFETCHES:    1662070 LATE PREFETCHES: 33732 DROPPED PREFETCHES: 0
L2C COMMIT LATE PREFETCHES: 0 NORMAL LATE: 33732 MISSED OPPORTUNITY: 0 UNCOVERED: 58724
L2C PREFETCHES SAME FILL-ORIGIN LEVEL: 1696872 DIFFERENT FILL-ORIGIN LEVEL: 0
L2C AVERAGE MISS LATENCY: 217.242 cycles
L2C AVERAGE MISS LATENCY LOAD: 167.355 cycles
L2C AVERAGE MISS LATENCY PREFETCH: 228.665 cycles
L2C AVERAGE MSHR OCCUPANCY: 1.42088
L2C MSHR FULL: 0
L2C RQ	ACCESS:    3179560	FORWARD:          0	MERGED:          0	TO_CACHE:    3179560
L2C WQ	ACCESS:    2720827	FORWARD:          0	MERGED:         23	TO_CACHE:    2720804
L2C PQ	ACCESS:    2549853	FORWARD:          0	MERGED:          0	TO_CACHE:    2549853

L2C Instructions Evicting Data 0
L2C Translations Evicting Data 3517
L2C Data Evicting Data 1686711
L2C Instructions Evicting Instructions 0
L2C Translations Evicting Instructions 0
L2C Data Evicting Instructions 0
L2C Instructions Evicting Translations 0
L2C Translations Evicting Translations 6
L2C Data Evicting Translations 3356
L2C Dense regions hint from L2: 0
PSCL5 SPEC fills:          0  NON-SPEC fills:          0
PSCL5 Test counter :          0
PSCL5 Leapfrog:          0
PSCL5 MSHR merge:          0
PSCL5 TOTAL     ACCESS:          0  HIT:          0  MISS:          0  HIT %:       -nan  MISS %:       -nan   MPKI: 0
PSCL5 PREFETCH  REQUESTED:          0  ISSUED:          0  USEFUL:          0  USELESS:          0
PSCL5 USEFUL LOAD PREFETCHES:          0 PREFETCH ISSUED TO LOWER LEVEL:          0  ACCURACY: -nan
PSCL5 TIMELY PREFETCHES:          0 LATE PREFETCHES: 0 DROPPED PREFETCHES: 0
PSCL5 COMMIT LATE PREFETCHES: 0 NORMAL LATE: 0 MISSED OPPORTUNITY: 0 UNCOVERED: 0
PSCL5 PREFETCHES SAME FILL-ORIGIN LEVEL: 0 DIFFERENT FILL-ORIGIN LEVEL: 0

PSCL4 SPEC fills:          0  NON-SPEC fills:          0
PSCL4 Test counter :          0
PSCL4 Leapfrog:          0
PSCL4 MSHR merge:          0
PSCL4 TOTAL     ACCESS:          0  HIT:          0  MISS:          0  HIT %:       -nan  MISS %:       -nan   MPKI: 0
PSCL4 PREFETCH  REQUESTED:          0  ISSUED:          0  USEFUL:          0  USELESS:          0
PSCL4 USEFUL LOAD PREFETCHES:          0 PREFETCH ISSUED TO LOWER LEVEL:          0  ACCURACY: -nan
PSCL4 TIMELY PREFETCHES:          0 LATE PREFETCHES: 0 DROPPED PREFETCHES: 0
PSCL4 COMMIT LATE PREFETCHES: 0 NORMAL LATE: 0 MISSED OPPORTUNITY: 0 UNCOVERED: 0
PSCL4 PREFETCHES SAME FILL-ORIGIN LEVEL: 0 DIFFERENT FILL-ORIGIN LEVEL: 0

PSCL3 SPEC fills:          0  NON-SPEC fills:          0
PSCL3 Test counter :          0
PSCL3 Leapfrog:          0
PSCL3 MSHR merge:          0
PSCL3 TOTAL     ACCESS:          0  HIT:          0  MISS:          0  HIT %:       -nan  MISS %:       -nan   MPKI: 0
PSCL3 PREFETCH  REQUESTED:          0  ISSUED:          0  USEFUL:          0  USELESS:          0
PSCL3 USEFUL LOAD PREFETCHES:          0 PREFETCH ISSUED TO LOWER LEVEL:          0  ACCURACY: -nan
PSCL3 TIMELY PREFETCHES:          0 LATE PREFETCHES: 0 DROPPED PREFETCHES: 0
PSCL3 COMMIT LATE PREFETCHES: 0 NORMAL LATE: 0 MISSED OPPORTUNITY: 0 UNCOVERED: 0
PSCL3 PREFETCHES SAME FILL-ORIGIN LEVEL: 0 DIFFERENT FILL-ORIGIN LEVEL: 0

PSCL2 SPEC fills:          0  NON-SPEC fills:          0
PSCL2 Test counter :          0
PSCL2 Leapfrog:          0
PSCL2 MSHR merge:          0
PSCL2 TOTAL     ACCESS:          0  HIT:          0  MISS:          0  HIT %:       -nan  MISS %:       -nan   MPKI: 0
PSCL2 PREFETCH  REQUESTED:          0  ISSUED:          0  USEFUL:          0  USELESS:          0
PSCL2 USEFUL LOAD PREFETCHES:          0 PREFETCH ISSUED TO LOWER LEVEL:          0  ACCURACY: -nan
PSCL2 TIMELY PREFETCHES:          0 LATE PREFETCHES: 0 DROPPED PREFETCHES: 0
PSCL2 COMMIT LATE PREFETCHES: 0 NORMAL LATE: 0 MISSED OPPORTUNITY: 0 UNCOVERED: 0
PSCL2 PREFETCHES SAME FILL-ORIGIN LEVEL: 0 DIFFERENT FILL-ORIGIN LEVEL: 0

LLC SPEC fills:          0  NON-SPEC fills:      26714
LLC Test counter :          0
LLC Leapfrog:          0
LLC MSHR merge:          0
LLC TOTAL     ACCESS:    3513893  HIT:    1723694  MISS:    1790199  HIT %:    49.0537  MISS %:    50.9463   MPKI: 8.95099
LLC LOAD      TOTAL       ACCESS:      58724  HIT:        221  MISS:      58503  HIT %:   0.376337  MISS %:    99.6237   MPKI: 0.292515
LLC LOAD      NON_SPEC    ACCESS:      26787  HIT:         73  MISS:      26714  HIT %:    0.27252  MISS %:    99.7275   MPKI: 0.13357
LLC LOAD      SPEC        ACCESS:      31937  HIT:        148  MISS:      31789  HIT %:   0.463412  MISS %:    99.5366   MPKI: 0.158945
LLC RFO       NON_SPEC    ACCESS:         29  HIT:         29  MISS:          0  HIT %:        100  MISS %:          0   MPKI: 0
LLC PREFETCH  NON_SPEC    ACCESS:    1696871  HIT:       1450  MISS:    1695421  HIT %:  0.0854514  MISS %:    99.9145   MPKI: 8.4771
LLC WRITEBACK NON_SPEC    ACCESS:     775794  HIT:     775765  MISS:         29  HIT %:    99.9963  MISS %: 0.00373811   MPKI: 0.000145
LLC CLEAN_EVICTION NON_SPEC    ACCESS:     978873  HIT:     946151  MISS:      32722  HIT %:    96.6572  MISS %:    3.34282   MPKI: 0.16361
LLC COMMIT LOAD NON_SPEC    ACCESS:         79  HIT:         74  MISS:          5  HIT %:    93.6709  MISS %:    6.32911   MPKI: 2.5e-05
LLC LOAD TRANSLATION NON_SPEC    ACCESS:       3523  HIT:          4  MISS:       3519  HIT %:    0.11354  MISS %:    99.8865   MPKI: 0.017595
LLC PREFETCH  REQUESTED:          0  ISSUED:          0  USEFUL:        207  USELESS:    1695160
LLC USEFUL LOAD PREFETCHES:        207 PREFETCH ISSUED TO LOWER LEVEL:    1695421  ACCURACY: 0.0122094
LLC TIMELY PREFETCHES:        207 LATE PREFETCHES: 0 DROPPED PREFETCHES: 0
LLC COMMIT LATE PREFETCHES: 0 NORMAL LATE: 0 MISSED OPPORTUNITY: 0 UNCOVERED: 58503
LLC PREFETCHES SAME FILL-ORIGIN LEVEL: 0 DIFFERENT FILL-ORIGIN LEVEL: 0
LLC AVERAGE MISS LATENCY: 193.309 cycles
LLC AVERAGE MISS LATENCY LOAD: 159.549 cycles
LLC AVERAGE MISS LATENCY PREFETCH: 198.26 cycles
LLC AVERAGE MSHR OCCUPANCY: 0.076738
LLC MSHR FULL: 0
LLC RQ	ACCESS:      62355	FORWARD:          0	MERGED:          0	TO_CACHE:      62355
LLC WQ	ACCESS:    1754675	FORWARD:          1	MERGED:          0	TO_CACHE:    1754675
LLC PQ	ACCESS:    1696872	FORWARD:          0	MERGED:          0	TO_CACHE:    1696871

LLC Dense regions hint to LLC: 0

RAW hits: 2865
Loads Generated: 70169131
Loads sent to L1D: 70166258
Stores Generated: 14041096
Stores sent to L1D: 14041098
Major fault: 0 Minor fault: 34498
Allocated PAGES: 34498
Total Load insts: 87707404
Total Non-spec loads: 8368700
Percentage of speculative loads: 90.4584

LeapFrogging counter: 0
Commit hits: 25759451 miss: 37313135
Commit hit %: 40.841 miss %: 59.159
Commits not translated: 0
Loads retired: 2922183
Stores retired: 14041098
Cache fills: 2922183
L1D response latency: 17.7623 cycles
Load retirement latency: 31.8122 cycles
OOO test counter: 0
Discarded buffer inserts: 25759451 hits: 403105 hit %: 1.56488
Filter prediction accuracy: -nan
[Bingo] PHT Access: 84620
[Bingo] PHT Hit PC+Addr: 14729
[Bingo] PHT Hit PC+Offs: 69551
[Bingo] PHT Miss: 340
[Bingo] Prefetch PC+Addr: 0
[Bingo] Prefetch PC+Offs: 0
[Bingo] Useful PC+Addr: 0
[Bingo] Useful PC+Offs: 0
[Bingo] Useless PC+Addr: 0
[Bingo] Useless PC+Offs: 0
[Bingo] L1 Prefetch per Region: 0
[Bingo] L2 Prefetch per Region: 31.2556
[Bingo] L3 Prefetch per Region: 0
[Bingo] No Prefetch per Region: 0.744411
[Bingo] Number of Voters Mean: 15.6325
[Bingo] Number of Voters SD: 8.17822
PHT read accesses: 1209453
PHT write accesses: 83097
AT read accesses: 2830183
AT write accesses: 2912858
FT read accesses: 266424
FT write accesses: 84620
PS read accesses: 294557
PS write accesses: 84280
PHT tag read accesses: 3879943
PHT tag write accesses: 97826
AT tag read accesses: 78890722
AT tag write accesses: 2913280
FT tag read accesses: 33889932
FT tag write accesses: 260145
PS tag read accesses: 49537107
PS tag write accesses: 378833

DRAM Statistics
 CHANNEL 0
 RQ ROW_BUFFER_HIT:    1141664  ROW_BUFFER_MISS:     615784
 DBUS_CONGESTED:       3790
 WQ ROW_BUFFER_HIT:     482749  ROW_BUFFER_MISS:    1271747  FULL:          0

 AVG_CONGESTED_CYCLE: 5
 All warmup complete: 2
Channel 0 Bank busy for read cycles: 0
Channel 0 Bank busy for write cycles: 0
Channel 0
Rank 0
0banks busy for read cycles: 140970952
0banks busy for write cycles: 61215
1banks busy for read cycles: 3963449
1banks busy for write cycles: 4028500
2banks busy for read cycles: 208355
2banks busy for write cycles: 1819595
3banks busy for read cycles: 175568
3banks busy for write cycles: 1277000
4banks busy for read cycles: 198388
4banks busy for write cycles: 1167884
5banks busy for read cycles: 188440
5banks busy for write cycles: 1488538
6banks busy for read cycles: 356868
6banks busy for write cycles: 1835773
7banks busy for read cycles: 3227882
7banks busy for write cycles: 3571319
8banks busy for read cycles: 14763900
8banks busy for write cycles: 20412626

CPU 0 Branch Prediction Accuracy: 99.9751% MPKI: 0.00438 Average ROB Occupancy at Mispredict: 57.5514
Branch types
NOT_BRANCH: 196487525 98.2438%
BRANCH_DIRECT_JUMP: 876 0.000438%
BRANCH_INDIRECT: 0 0%
BRANCH_CONDITIONAL: 3509613 1.75481%
BRANCH_DIRECT_CALL: 876 0.000438%
BRANCH_INDIRECT_CALL: 0 0%
BRANCH_RETURN: 876 0.000438%
BRANCH_OTHER: 0 0%

DRAM PAGES: 1048576
Allocated PAGES: 34498
