
*** ChampSim Multicore Out-of-Order Simulator ***

Warmup Instructions: 50000000
Simulation Instructions: 200000000
Number of CPUs: 1
LLC sets: 2048
LLC ways: 16
L0D sets: 16
L0D ways: 2
ROB size: 352
LQ size: 128
SQ size: 72
Secure Berti: OFF
Berti: OFF
Berti Fill: OFF
On commit prefetching: OFF
Hit-based filter: OFF
Time-guarding: ON
Free-slotting: ON
Leap-frogging: ON
Train prefetcher on L0D bypass: OFF
No translation penalty for prefetchers: OFF
Prefetch to L0D only: OFF
Prefetch to L1D only: OFF
Clean evictions: ON
Commit loads: ON
Commit write: ON
Fill commit loads to L2C, LLC: ON
DRAM IO FREQUENCY: 6400
ROB SIZE: 352
Off-chip DRAM Size: 4096 MB Channels: 1 Width: 64-bit Data Rate: 6400 MT/s
CPU 0 runs /home/sumon/secure_berti/GhostMinion/../../traces/spec/654.roms_s-1007B.champsimtrace.xz
.xz
BTB has LRU replacement policy
ITLB has LRU replacement policy
DTLB has LRU replacement policy
STLB has LRU replacement policy
L1I has LRU replacement policy
L0D has LRU replacement policy
L1D has LRU replacement policy
Bingo PHT WAYS: 16 and PHT_SIZE: 16384
L2C has LRU replacement policy
LLC has LRU replacement policy
Heartbeat CPU 0 instructions: 10000000 cycles: 5299695 heartbeat IPC: 1.8869 cumulative IPC: 1.8869 (Simulation time: 0 hr 1 min 9 sec) 
Heartbeat CPU 0 instructions: 20000003 cycles: 10597930 heartbeat IPC: 1.88742 cumulative IPC: 1.88716 (Simulation time: 0 hr 2 min 17 sec) 
Heartbeat CPU 0 instructions: 30000000 cycles: 15897463 heartbeat IPC: 1.88696 cumulative IPC: 1.88709 (Simulation time: 0 hr 3 min 26 sec) 
Heartbeat CPU 0 instructions: 40000003 cycles: 21197066 heartbeat IPC: 1.88693 cumulative IPC: 1.88705 (Simulation time: 0 hr 4 min 36 sec) 
Heartbeat CPU 0 instructions: 50000003 cycles: 25397379 heartbeat IPC: 2.38077 cumulative IPC: 1.96871 (Simulation time: 0 hr 5 min 48 sec) 

Warmup complete CPU 0 instructions: 50000003 cycles: 25397379 (Simulation time: 0 hr 5 min 48 sec) 

Heartbeat CPU 0 instructions: 60000002 cycles: 43302799 heartbeat IPC: 0.55849 cumulative IPC: 0.55849 (Simulation time: 0 hr 7 min 22 sec) 
Heartbeat CPU 0 instructions: 70000000 cycles: 60587643 heartbeat IPC: 0.578541 cumulative IPC: 0.568339 (Simulation time: 0 hr 8 min 44 sec) 
Heartbeat CPU 0 instructions: 80000000 cycles: 77873821 heartbeat IPC: 0.578497 cumulative IPC: 0.571685 (Simulation time: 0 hr 10 min 5 sec) 
Heartbeat CPU 0 instructions: 90000000 cycles: 95156515 heartbeat IPC: 0.578614 cumulative IPC: 0.573402 (Simulation time: 0 hr 11 min 27 sec) 
Heartbeat CPU 0 instructions: 100000000 cycles: 112436011 heartbeat IPC: 0.578721 cumulative IPC: 0.574458 (Simulation time: 0 hr 12 min 48 sec) 
Heartbeat CPU 0 instructions: 110000000 cycles: 129717032 heartbeat IPC: 0.578669 cumulative IPC: 0.575155 (Simulation time: 0 hr 14 min 9 sec) 
Heartbeat CPU 0 instructions: 120000001 cycles: 146998110 heartbeat IPC: 0.578668 cumulative IPC: 0.575654 (Simulation time: 0 hr 15 min 38 sec) 
Heartbeat CPU 0 instructions: 130000002 cycles: 165020251 heartbeat IPC: 0.554873 cumulative IPC: 0.572972 (Simulation time: 0 hr 17 min 25 sec) 
Heartbeat CPU 0 instructions: 140000000 cycles: 182230754 heartbeat IPC: 0.58104 cumulative IPC: 0.573857 (Simulation time: 0 hr 18 min 45 sec) 
Heartbeat CPU 0 instructions: 150000000 cycles: 199437644 heartbeat IPC: 0.581163 cumulative IPC: 0.57458 (Simulation time: 0 hr 20 min 6 sec) 
Heartbeat CPU 0 instructions: 160000001 cycles: 216644066 heartbeat IPC: 0.581178 cumulative IPC: 0.575173 (Simulation time: 0 hr 21 min 27 sec) 
Heartbeat CPU 0 instructions: 170000000 cycles: 233847140 heartbeat IPC: 0.581291 cumulative IPC: 0.575678 (Simulation time: 0 hr 22 min 48 sec) 
Heartbeat CPU 0 instructions: 180000002 cycles: 251051081 heartbeat IPC: 0.581262 cumulative IPC: 0.576104 (Simulation time: 0 hr 24 min 8 sec) 
Heartbeat CPU 0 instructions: 190000002 cycles: 268258106 heartbeat IPC: 0.581158 cumulative IPC: 0.576462 (Simulation time: 0 hr 25 min 28 sec) 
Heartbeat CPU 0 instructions: 200000001 cycles: 285200776 heartbeat IPC: 0.590226 cumulative IPC: 0.57736 (Simulation time: 0 hr 27 min 14 sec) 
Heartbeat CPU 0 instructions: 210000001 cycles: 303523769 heartbeat IPC: 0.545762 cumulative IPC: 0.575278 (Simulation time: 0 hr 28 min 40 sec) 
Heartbeat CPU 0 instructions: 220000000 cycles: 320738704 heartbeat IPC: 0.580891 cumulative IPC: 0.575605 (Simulation time: 0 hr 29 min 59 sec) 
Heartbeat CPU 0 instructions: 230000000 cycles: 337957534 heartbeat IPC: 0.58076 cumulative IPC: 0.575889 (Simulation time: 0 hr 31 min 19 sec) 
Heartbeat CPU 0 instructions: 240000001 cycles: 355175212 heartbeat IPC: 0.580798 cumulative IPC: 0.576145 (Simulation time: 0 hr 32 min 38 sec) 
Heartbeat CPU 0 instructions: 250000003 cycles: 372389018 heartbeat IPC: 0.580929 cumulative IPC: 0.576383 (Simulation time: 0 hr 33 min 57 sec) 
Finished CPU 0 instructions: 200000000 cycles: 346991639 cumulative IPC: 0.576383 (Simulation time: 0 hr 33 min 57 sec) 
 Instruction ID: 250000098

ChampSim completed all CPUs

Region of Interest Statistics

CPU 0 cumulative IPC: 0.576383 instructions: 200000000 cycles: 346991639
ITLB SPEC fills:          0  NON-SPEC fills:          0
ITLB Test counter :          0
ITLB Leapfrog:          0
ITLB MSHR merge:          0
ITLB TOTAL     ACCESS:   33781906  HIT:   33781904  MISS:          2  HIT %:        100  MISS %: 5.92033e-06   MPKI: 1e-05
ITLB LOAD TRANSLATION NON_SPEC    ACCESS:   33781906  HIT:   33781904  MISS:          2  HIT %:        100  MISS %: 5.92033e-06   MPKI: 1e-05
ITLB PREFETCH  REQUESTED:          0  ISSUED:          0  USEFUL:          0  USELESS:          0
ITLB USEFUL LOAD PREFETCHES:          0 PREFETCH ISSUED TO LOWER LEVEL:          0  ACCURACY: -nan
ITLB TIMELY PREFETCHES:          0 LATE PREFETCHES: 0 DROPPED PREFETCHES: 0
ITLB COMMIT LATE PREFETCHES: 0 NORMAL LATE: 0 MISSED OPPORTUNITY: 0 UNCOVERED: 0
ITLB PREFETCHES SAME FILL-ORIGIN LEVEL: 0 DIFFERENT FILL-ORIGIN LEVEL: 0
ITLB AVERAGE MISS LATENCY: 364 cycles
ITLB AVERAGE MISS LATENCY LOAD: -nan cycles
ITLB AVERAGE MISS LATENCY PREFETCH: -nan cycles
ITLB AVERAGE MSHR OCCUPANCY: 0
ITLB MSHR FULL: 0
ITLB RQ	ACCESS:   42923026	FORWARD:          0	MERGED:    9141119	TO_CACHE:   33781907

DTLB SPEC fills:          0  NON-SPEC fills:          0
DTLB Test counter :          0
DTLB Leapfrog:          0
DTLB MSHR merge:          0
DTLB TOTAL     ACCESS:   58163902  HIT:   58133866  MISS:      30036  HIT %:    99.9484  MISS %:  0.0516403   MPKI: 0.15018
DTLB LOAD TRANSLATION NON_SPEC    ACCESS:   58163902  HIT:   58133866  MISS:      30036  HIT %:    99.9484  MISS %:  0.0516403   MPKI: 0.15018
DTLB PREFETCH  REQUESTED:          0  ISSUED:          0  USEFUL:          0  USELESS:          0
DTLB USEFUL LOAD PREFETCHES:          0 PREFETCH ISSUED TO LOWER LEVEL:          0  ACCURACY: -nan
DTLB TIMELY PREFETCHES:          0 LATE PREFETCHES: 0 DROPPED PREFETCHES: 0
DTLB COMMIT LATE PREFETCHES: 0 NORMAL LATE: 0 MISSED OPPORTUNITY: 0 UNCOVERED: 0
DTLB PREFETCHES SAME FILL-ORIGIN LEVEL: 0 DIFFERENT FILL-ORIGIN LEVEL: 0
DTLB AVERAGE MISS LATENCY: 265.933 cycles
DTLB AVERAGE MISS LATENCY LOAD: -nan cycles
DTLB AVERAGE MISS LATENCY PREFETCH: -nan cycles
DTLB AVERAGE MSHR OCCUPANCY: 0.0105794
DTLB MSHR FULL: 0
DTLB RQ	ACCESS:   67209835	FORWARD:          0	MERGED:    8993930	TO_CACHE:   58215905

STLB SPEC fills:          0  NON-SPEC fills:          0
STLB Test counter :          0
STLB Leapfrog:          0
STLB MSHR merge:          0
STLB TOTAL     ACCESS:      30038  HIT:        896  MISS:      29142  HIT %:    2.98289  MISS %:    97.0171   MPKI: 0.14571
STLB LOAD TRANSLATION NON_SPEC    ACCESS:      30038  HIT:        896  MISS:      29142  HIT %:    2.98289  MISS %:    97.0171   MPKI: 0.14571
STLB PREFETCH  REQUESTED:          0  ISSUED:          0  USEFUL:          0  USELESS:          0
STLB USEFUL LOAD PREFETCHES:          0 PREFETCH ISSUED TO LOWER LEVEL:          0  ACCURACY: -nan
STLB TIMELY PREFETCHES:          0 LATE PREFETCHES: 0 DROPPED PREFETCHES: 0
STLB COMMIT LATE PREFETCHES: 0 NORMAL LATE: 0 MISSED OPPORTUNITY: 0 UNCOVERED: 0
STLB PREFETCHES SAME FILL-ORIGIN LEVEL: 0 DIFFERENT FILL-ORIGIN LEVEL: 0
STLB AVERAGE MISS LATENCY: 264.681 cycles
STLB AVERAGE MISS LATENCY LOAD: -nan cycles
STLB AVERAGE MISS LATENCY PREFETCH: -nan cycles
STLB AVERAGE MSHR OCCUPANCY: 0.192356
STLB MSHR FULL: 0
STLB RQ	ACCESS:      30038	FORWARD:          0	MERGED:          0	TO_CACHE:      30038

STLB Hit, L1D data hit: 0
STLB Hit, L2C data hit: 0
STLB Hit, LLC data hit: 0
STLB Hit, LLC data miss: 0
STLB STLB hints to L2: 0
L0D SPEC fills:   20256323  NON-SPEC fills:          0
L0D TimeGuard Request with older TS:     909500 Restricted eviction:     605245 read:    4005044
L0D Test counter :          0
L0D Leapfrog:          0
L0D MSHR merge:     733164
L0D TOTAL     ACCESS:   41423649  HIT:    5470620  MISS:   35953029  HIT %:    13.2065  MISS %:    86.7935   MPKI: 179.765
L0D LOAD      TOTAL       ACCESS:   41423649  HIT:    5470620  MISS:   35953029  HIT %:    13.2065  MISS %:    86.7935   MPKI: 179.765
L0D LOAD      NON_SPEC    ACCESS:   15101614  HIT:      10152  MISS:   15091462  HIT %:  0.0672246  MISS %:    99.9328   MPKI: 75.4573
L0D LOAD      SPEC        ACCESS:   26322035  HIT:    5460468  MISS:   20861567  HIT %:    20.7449  MISS %:    79.2551   MPKI: 104.308
L0D PREFETCH  REQUESTED:          0  ISSUED:          0  USEFUL:          0  USELESS:          0
L0D USEFUL LOAD PREFETCHES:          0 PREFETCH ISSUED TO LOWER LEVEL:          0  ACCURACY: -nan
L0D TIMELY PREFETCHES:          0 LATE PREFETCHES: 0 DROPPED PREFETCHES: 0
L0D COMMIT LATE PREFETCHES: 0 NORMAL LATE: 0 MISSED OPPORTUNITY: 0 UNCOVERED: 35953029
L0D PREFETCHES SAME FILL-ORIGIN LEVEL: 0 DIFFERENT FILL-ORIGIN LEVEL: 0
L0D AVERAGE MISS LATENCY: 6.27968 cycles
L0D AVERAGE MISS LATENCY LOAD: 6.27968 cycles
L0D AVERAGE MISS LATENCY PREFETCH: -nan cycles
L0D AVERAGE MSHR OCCUPANCY: 0.681582
L0D MSHR FULL: 9.67806e-06
L0D RQ	ACCESS:   48648550	FORWARD:          0	MERGED:    6491745	TO_CACHE:   42156805
L0D WQ	ACCESS:   25053030	FORWARD:          0	MERGED:          0	TO_CACHE:   25053030

L1D SPEC fills:          0  NON-SPEC fills:      89539
L1D Test counter :          0
L1D Leapfrog:          0
L1D MSHR merge:       7020
L1D TOTAL     ACCESS:   87487444  HIT:   85536015  MISS:    1951429  HIT %:    97.7695  MISS %:    2.23052   MPKI: 9.75714
L1D LOAD      TOTAL       ACCESS:   35946008  HIT:   35115765  MISS:     830243  HIT %:    97.6903  MISS %:    2.30969   MPKI: 4.15121
L1D LOAD      NON_SPEC    ACCESS:   15091448  HIT:   15001909  MISS:      89539  HIT %:    99.4067  MISS %:    0.59331   MPKI: 0.447695
L1D LOAD      SPEC        ACCESS:   20854560  HIT:   20113856  MISS:     740704  HIT %:    96.4482  MISS %:    3.55176   MPKI: 3.70352
L1D RFO       NON_SPEC    ACCESS:   21620102  HIT:   21201720  MISS:     418382  HIT %:    98.0648  MISS %:    1.93515   MPKI: 2.09191
L1D COMMIT LOAD NON_SPEC    ACCESS:    9985276  HIT:    9964805  MISS:      20471  HIT %:     99.795  MISS %:   0.205012   MPKI: 0.102355
L1D COMMIT WRITE NON_SPEC    ACCESS:   19936058  HIT:   19253725  MISS:     682333  HIT %:    96.5774  MISS %:    3.42261   MPKI: 3.41167
L1D PREFETCH  REQUESTED:          0  ISSUED:          0  USEFUL:          0  USELESS:          0
L1D USEFUL LOAD PREFETCHES:          0 PREFETCH ISSUED TO LOWER LEVEL:          0  ACCURACY: -nan
L1D TIMELY PREFETCHES:          0 LATE PREFETCHES: 0 DROPPED PREFETCHES: 0
L1D COMMIT LATE PREFETCHES: 0 NORMAL LATE: 0 MISSED OPPORTUNITY: 0 UNCOVERED: 830243
L1D PREFETCHES SAME FILL-ORIGIN LEVEL: 0 DIFFERENT FILL-ORIGIN LEVEL: 0
L1D AVERAGE MISS LATENCY: 120.389 cycles
L1D AVERAGE MISS LATENCY LOAD: 52.4334 cycles
L1D AVERAGE MISS LATENCY PREFETCH: -nan cycles
L1D AVERAGE MSHR OCCUPANCY: 0.859053
L1D MSHR FULL: 0.0011947
L1D RQ	ACCESS:   49561282	FORWARD:          0	MERGED:    3442562	TO_CACHE:   45950869
L1D WQ	ACCESS:   44991262	FORWARD:     167851	MERGED:    1440346	TO_CACHE:   43550916

L1D UNIQUE REGIONS ACCESSED: 0
L1D REGIONS CONFLICTS: 0
L1D Cross Page Prefetch Requests: 0
L1D Same Page Prefetch Requests: 0
L1D ROI Sum of L1D PQ occupancy: 0
L1D PREFETCHES PUSHED FROM L2C: 0
L1I SPEC fills:          0  NON-SPEC fills:          0
L1I Test counter :          0
L1I Leapfrog:          0
L1I MSHR merge:         11
L1I TOTAL     ACCESS:   42923014  HIT:   42922978  MISS:         36  HIT %:    99.9999  MISS %: 8.38711e-05   MPKI: 0.00018
L1I LOAD      TOTAL       ACCESS:   42923014  HIT:   42922978  MISS:         36  HIT %:    99.9999  MISS %: 8.38711e-05   MPKI: 0.00018
L1I LOAD      NON_SPEC    ACCESS:   42923014  HIT:   42922978  MISS:         36  HIT %:    99.9999  MISS %: 8.38711e-05   MPKI: 0.00018
L1I PREFETCH  REQUESTED:          0  ISSUED:          0  USEFUL:          0  USELESS:          0
L1I USEFUL LOAD PREFETCHES:          0 PREFETCH ISSUED TO LOWER LEVEL:          0  ACCURACY: -nan
L1I TIMELY PREFETCHES:          0 LATE PREFETCHES: 0 DROPPED PREFETCHES: 0
L1I COMMIT LATE PREFETCHES: 0 NORMAL LATE: 0 MISSED OPPORTUNITY: 0 UNCOVERED: 36
L1I PREFETCHES SAME FILL-ORIGIN LEVEL: 0 DIFFERENT FILL-ORIGIN LEVEL: 0
L1I AVERAGE MISS LATENCY: 241.694 cycles
L1I AVERAGE MISS LATENCY LOAD: 241.694 cycles
L1I AVERAGE MISS LATENCY PREFETCH: -nan cycles
L1I AVERAGE MSHR OCCUPANCY: 6.98926e-07
L1I MSHR FULL: 0
L1I RQ	ACCESS:   56477465	FORWARD:          0	MERGED:   13554439	TO_CACHE:   42923026

BTB SPEC fills:          0  NON-SPEC fills:          0
BTB Test counter :          0
BTB Leapfrog:          0
BTB MSHR merge:          0
BTB TOTAL     ACCESS:   12980512  HIT:   11531272  MISS:    1449240  HIT %:    88.8353  MISS %:    11.1647   MPKI: 7.2462
BTB BRANCH_DIRECT_JUMP	ACCESS:    1449216  HIT:    1449208  MISS:          8
BTB BRANCH_INDIRECT	ACCESS:          0  HIT:          0  MISS:          0
BTB BRANCH_CONDITIONAL	ACCESS:    5734548  HIT:    5734517  MISS:         31
BTB BRANCH_DIRECT_CALL	ACCESS:    2898375  HIT:    2898365  MISS:         10
BTB BRANCH_INDIRECT_CALL	ACCESS:          0  HIT:          0  MISS:          0
BTB BRANCH_RETURN	ACCESS:    2898373  HIT:    1449182  MISS:    1449191
BTB BRANCH_OTHER ACCESS:          0  HIT:          0  MISS:          0

L2C SPEC fills:          0  NON-SPEC fills:       8885
L2C Test counter :          0
L2C Leapfrog:          0
L2C MSHR merge:      16133
L2C TOTAL     ACCESS:    3426607  HIT:    2032355  MISS:    1394252  HIT %:     59.311  MISS %:     40.689   MPKI: 6.97126
L2C LOAD      TOTAL       ACCESS:     830279  HIT:     750840  MISS:      79439  HIT %:    90.4323  MISS %:    9.56775   MPKI: 0.397195
L2C LOAD      NON_SPEC    ACCESS:      89575  HIT:      80654  MISS:       8921  HIT %:    90.0407  MISS %:    9.95925   MPKI: 0.044605
L2C LOAD      SPEC        ACCESS:     740704  HIT:     670186  MISS:      70518  HIT %:    90.4796  MISS %:     9.5204   MPKI: 0.35259
L2C RFO       NON_SPEC    ACCESS:     418382  HIT:          0  MISS:     418382  HIT %:          0  MISS %:        100   MPKI: 2.09191
L2C PREFETCH  NON_SPEC    ACCESS:     820765  HIT:          2  MISS:     820763  HIT %: 0.000243675  MISS %:    99.9998   MPKI: 4.10381
L2C WRITEBACK NON_SPEC    ACCESS:     418220  HIT:     417811  MISS:        409  HIT %:    99.9022  MISS %:  0.0977954   MPKI: 0.002045
L2C CLEAN_EVICTION NON_SPEC    ACCESS:     772822  HIT:     703788  MISS:      69034  HIT %:    91.0673  MISS %:    8.93272   MPKI: 0.34517
L2C COMMIT LOAD NON_SPEC    ACCESS:      20471  HIT:      20348  MISS:        123  HIT %:    99.3992  MISS %:    0.60085   MPKI: 0.000615
L2C LOAD TRANSLATION NON_SPEC    ACCESS:     145668  HIT:     139566  MISS:       6102  HIT %:     95.811  MISS %:    4.18898   MPKI: 0.03051
L2C PREFETCH  REQUESTED:     843582  ISSUED:     843582  USEFUL:     713344  USELESS:     107015
L2C USEFUL LOAD PREFETCHES:     713344 PREFETCH ISSUED TO LOWER LEVEL:     836896  ACCURACY: 85.2369
L2C TIMELY PREFETCHES:     713344 LATE PREFETCHES: 16133 DROPPED PREFETCHES: 0
L2C COMMIT LATE PREFETCHES: 0 NORMAL LATE: 16133 MISSED OPPORTUNITY: 0 UNCOVERED: 63306
L2C PREFETCHES SAME FILL-ORIGIN LEVEL: 836896 DIFFERENT FILL-ORIGIN LEVEL: 0
L2C AVERAGE MISS LATENCY: 475.216 cycles
L2C AVERAGE MISS LATENCY LOAD: 412.406 cycles
L2C AVERAGE MISS LATENCY PREFETCH: 539.772 cycles
L2C AVERAGE MSHR OCCUPANCY: 17.8192
L2C MSHR FULL: 0.366958
L2C RQ	ACCESS:    1414800	FORWARD:          0	MERGED:          0	TO_CACHE:    1414800
L2C WQ	ACCESS:    1191049	FORWARD:          0	MERGED:          7	TO_CACHE:    1191042
L2C PQ	ACCESS:     843582	FORWARD:          0	MERGED:          0	TO_CACHE:     843582

L2C Instructions Evicting Data 36
L2C Translations Evicting Data 6094
L2C Data Evicting Data 1242339
L2C Instructions Evicting Instructions 0
L2C Translations Evicting Instructions 0
L2C Data Evicting Instructions 34
L2C Instructions Evicting Translations 0
L2C Translations Evicting Translations 8
L2C Data Evicting Translations 5780
L2C Dense regions hint from L2: 0
PSCL5 SPEC fills:          0  NON-SPEC fills:          0
PSCL5 Test counter :          0
PSCL5 Leapfrog:          0
PSCL5 MSHR merge:          0
PSCL5 TOTAL     ACCESS:          0  HIT:          0  MISS:          0  HIT %:       -nan  MISS %:       -nan   MPKI: 0
PSCL5 PREFETCH  REQUESTED:          0  ISSUED:          0  USEFUL:          0  USELESS:          0
PSCL5 USEFUL LOAD PREFETCHES:          0 PREFETCH ISSUED TO LOWER LEVEL:          0  ACCURACY: -nan
PSCL5 TIMELY PREFETCHES:          0 LATE PREFETCHES: 0 DROPPED PREFETCHES: 0
PSCL5 COMMIT LATE PREFETCHES: 0 NORMAL LATE: 0 MISSED OPPORTUNITY: 0 UNCOVERED: 0
PSCL5 PREFETCHES SAME FILL-ORIGIN LEVEL: 0 DIFFERENT FILL-ORIGIN LEVEL: 0

PSCL4 SPEC fills:          0  NON-SPEC fills:          0
PSCL4 Test counter :          0
PSCL4 Leapfrog:          0
PSCL4 MSHR merge:          0
PSCL4 TOTAL     ACCESS:          0  HIT:          0  MISS:          0  HIT %:       -nan  MISS %:       -nan   MPKI: 0
PSCL4 PREFETCH  REQUESTED:          0  ISSUED:          0  USEFUL:          0  USELESS:          0
PSCL4 USEFUL LOAD PREFETCHES:          0 PREFETCH ISSUED TO LOWER LEVEL:          0  ACCURACY: -nan
PSCL4 TIMELY PREFETCHES:          0 LATE PREFETCHES: 0 DROPPED PREFETCHES: 0
PSCL4 COMMIT LATE PREFETCHES: 0 NORMAL LATE: 0 MISSED OPPORTUNITY: 0 UNCOVERED: 0
PSCL4 PREFETCHES SAME FILL-ORIGIN LEVEL: 0 DIFFERENT FILL-ORIGIN LEVEL: 0

PSCL3 SPEC fills:          0  NON-SPEC fills:          0
PSCL3 Test counter :          0
PSCL3 Leapfrog:          0
PSCL3 MSHR merge:          0
PSCL3 TOTAL     ACCESS:          0  HIT:          0  MISS:          0  HIT %:       -nan  MISS %:       -nan   MPKI: 0
PSCL3 PREFETCH  REQUESTED:          0  ISSUED:          0  USEFUL:          0  USELESS:          0
PSCL3 USEFUL LOAD PREFETCHES:          0 PREFETCH ISSUED TO LOWER LEVEL:          0  ACCURACY: -nan
PSCL3 TIMELY PREFETCHES:          0 LATE PREFETCHES: 0 DROPPED PREFETCHES: 0
PSCL3 COMMIT LATE PREFETCHES: 0 NORMAL LATE: 0 MISSED OPPORTUNITY: 0 UNCOVERED: 0
PSCL3 PREFETCHES SAME FILL-ORIGIN LEVEL: 0 DIFFERENT FILL-ORIGIN LEVEL: 0

PSCL2 SPEC fills:          0  NON-SPEC fills:          0
PSCL2 Test counter :          0
PSCL2 Leapfrog:          0
PSCL2 MSHR merge:          0
PSCL2 TOTAL     ACCESS:          0  HIT:          0  MISS:          0  HIT %:       -nan  MISS %:       -nan   MPKI: 0
PSCL2 PREFETCH  REQUESTED:          0  ISSUED:          0  USEFUL:          0  USELESS:          0
PSCL2 USEFUL LOAD PREFETCHES:          0 PREFETCH ISSUED TO LOWER LEVEL:          0  ACCURACY: -nan
PSCL2 TIMELY PREFETCHES:          0 LATE PREFETCHES: 0 DROPPED PREFETCHES: 0
PSCL2 COMMIT LATE PREFETCHES: 0 NORMAL LATE: 0 MISSED OPPORTUNITY: 0 UNCOVERED: 0
PSCL2 PREFETCHES SAME FILL-ORIGIN LEVEL: 0 DIFFERENT FILL-ORIGIN LEVEL: 0

LLC SPEC fills:          0  NON-SPEC fills:       8074
LLC Test counter :          0
LLC Leapfrog:          0
LLC MSHR merge:          0
LLC TOTAL     ACCESS:    2515695  HIT:    1137456  MISS:    1378239  HIT %:    45.2144  MISS %:    54.7856   MPKI: 6.89119
LLC LOAD      TOTAL       ACCESS:      63306  HIT:        634  MISS:      62672  HIT %:    1.00148  MISS %:    98.9985   MPKI: 0.31336
LLC LOAD      NON_SPEC    ACCESS:       8116  HIT:          6  MISS:       8110  HIT %:   0.073928  MISS %:    99.9261   MPKI: 0.04055
LLC LOAD      SPEC        ACCESS:      55190  HIT:        628  MISS:      54562  HIT %:    1.13789  MISS %:    98.8621   MPKI: 0.27281
LLC RFO       NON_SPEC    ACCESS:     418382  HIT:          0  MISS:     418382  HIT %:          0  MISS %:        100   MPKI: 2.09191
LLC PREFETCH  NON_SPEC    ACCESS:     836896  HIT:          1  MISS:     836895  HIT %: 0.000119489  MISS %:    99.9999   MPKI: 4.18447
LLC WRITEBACK NON_SPEC    ACCESS:     417315  HIT:     416906  MISS:        409  HIT %:     99.902  MISS %:  0.0980075   MPKI: 0.002045
LLC CLEAN_EVICTION NON_SPEC    ACCESS:     773571  HIT:     719899  MISS:      53672  HIT %:    93.0618  MISS %:    6.93821   MPKI: 0.26836
LLC COMMIT LOAD NON_SPEC    ACCESS:        123  HIT:          8  MISS:        115  HIT %:    6.50407  MISS %:    93.4959   MPKI: 0.000575
LLC LOAD TRANSLATION NON_SPEC    ACCESS:       6102  HIT:          8  MISS:       6094  HIT %:   0.131105  MISS %:    99.8689   MPKI: 0.03047
LLC PREFETCH  REQUESTED:          0  ISSUED:          0  USEFUL:        641  USELESS:     839777
LLC USEFUL LOAD PREFETCHES:        641 PREFETCH ISSUED TO LOWER LEVEL:     836895  ACCURACY: 0.0765926
LLC TIMELY PREFETCHES:        641 LATE PREFETCHES: 0 DROPPED PREFETCHES: 0
LLC COMMIT LATE PREFETCHES: 0 NORMAL LATE: 0 MISSED OPPORTUNITY: 0 UNCOVERED: 62672
LLC PREFETCHES SAME FILL-ORIGIN LEVEL: 0 DIFFERENT FILL-ORIGIN LEVEL: 0
LLC AVERAGE MISS LATENCY: 455.084 cycles
LLC AVERAGE MISS LATENCY LOAD: 361.857 cycles
LLC AVERAGE MISS LATENCY PREFETCH: 514.77 cycles
LLC AVERAGE MSHR OCCUPANCY: 8.19249
LLC MSHR FULL: 0
LLC RQ	ACCESS:     487913	FORWARD:          0	MERGED:          0	TO_CACHE:     487913
LLC WQ	ACCESS:    1190886	FORWARD:          0	MERGED:          0	TO_CACHE:    1190886
LLC PQ	ACCESS:     836896	FORWARD:          0	MERGED:          0	TO_CACHE:     836896

LLC Dense regions hint to LLC: 0

RAW hits: 5915558
Loads Generated: 54564106
Loads sent to L1D: 48648550
Stores Generated: 25053030
Stores sent to L1D: 25053030
Major fault: 0 Minor fault: 17838
Allocated PAGES: 17838
Total Load insts: 59645893
Total Non-spec loads: 16589742
Percentage of speculative loads: 72.1863

LeapFrogging counter: 213044
Commit hits: 19938232 miss: 13608257
Commit hit %: 59.4346 miss %: 40.5654
Commits not translated: 0
Loads retired: 830243
Stores retired: 25053030
Cache fills: 830243
L1D response latency: 52.4334 cycles
Load retirement latency: 131.228 cycles
OOO test counter: 0
Discarded buffer inserts: 19938232 hits: 20971 hit %: 0.10518
Filter prediction accuracy: -nan
[Bingo] PHT Access: 32568
[Bingo] PHT Hit PC+Addr: 2326
[Bingo] PHT Hit PC+Offs: 29548
[Bingo] PHT Miss: 694
[Bingo] Prefetch PC+Addr: 0
[Bingo] Prefetch PC+Offs: 0
[Bingo] Useful PC+Addr: 0
[Bingo] Useful PC+Offs: 0
[Bingo] Useless PC+Addr: 0
[Bingo] Useless PC+Offs: 0
[Bingo] L1 Prefetch per Region: 0
[Bingo] L2 Prefetch per Region: 27.7988
[Bingo] L3 Prefetch per Region: 0
[Bingo] No Prefetch per Region: 4.2012
[Bingo] Number of Voters Mean: 15.0004
[Bingo] Number of Voters SD: 7.5586
PHT read accesses: 491117
PHT write accesses: 32019
AT read accesses: 803947
AT write accesses: 829662
FT read accesses: 96666
FT write accesses: 32568
PS read accesses: 115939
PS write accesses: 31874
PHT tag read accesses: 1481168
PHT tag write accesses: 34345
AT tag read accesses: 35953454
AT tag write accesses: 835966
FT tag read accesses: 23302950
FT tag write accesses: 97183
PS tag read accesses: 14565626
PS tag write accesses: 147813

DRAM Statistics
 CHANNEL 0
 RQ ROW_BUFFER_HIT:     466641  ROW_BUFFER_MISS:     857517
 DBUS_CONGESTED:        412
 WQ ROW_BUFFER_HIT:     233953  ROW_BUFFER_MISS:     956256  FULL:      26694

 AVG_CONGESTED_CYCLE: 6
 All warmup complete: 2
Channel 0 Bank busy for read cycles: 0
Channel 0 Bank busy for write cycles: 0
Channel 0
Rank 0
0banks busy for read cycles: 267412342
0banks busy for write cycles: 93928
1banks busy for read cycles: 17440585
1banks busy for write cycles: 13353798
2banks busy for read cycles: 3218247
2banks busy for write cycles: 413949
3banks busy for read cycles: 2238490
3banks busy for write cycles: 316848
4banks busy for read cycles: 1293432
4banks busy for write cycles: 312944
5banks busy for read cycles: 1236357
5banks busy for write cycles: 327019
6banks busy for read cycles: 1207339
6banks busy for write cycles: 373402
7banks busy for read cycles: 2133640
7banks busy for write cycles: 1561406
8banks busy for read cycles: 12652302
8banks busy for write cycles: 21405612

CPU 0 Branch Prediction Accuracy: 99.9742% MPKI: 0.027965 Average ROB Occupancy at Mispredict: 75.0434
Branch types
NOT_BRANCH: 178321210 89.1606%
BRANCH_DIRECT_JUMP: 1449216 0.724608%
BRANCH_INDIRECT: 0 0%
BRANCH_CONDITIONAL: 14432543 7.21627%
BRANCH_DIRECT_CALL: 2898375 1.44919%
BRANCH_INDIRECT_CALL: 0 0%
BRANCH_RETURN: 2898373 1.44919%
BRANCH_OTHER: 0 0%

DRAM PAGES: 1048576
Allocated PAGES: 17838
