
*** ChampSim Multicore Out-of-Order Simulator ***

Warmup Instructions: 50000000
Simulation Instructions: 200000000
Number of CPUs: 1
LLC sets: 2048
LLC ways: 16
L0D sets: 16
L0D ways: 2
ROB size: 352
LQ size: 128
SQ size: 72
Secure Berti: OFF
Berti: OFF
Berti Fill: OFF
On commit prefetching: OFF
Hit-based filter: OFF
Time-guarding: ON
Free-slotting: ON
Leap-frogging: ON
Train prefetcher on L0D bypass: OFF
No translation penalty for prefetchers: OFF
Prefetch to L0D only: OFF
Prefetch to L1D only: OFF
Clean evictions: ON
Commit loads: ON
Commit write: ON
Fill commit loads to L2C, LLC: ON
DRAM IO FREQUENCY: 6400
ROB SIZE: 352
Off-chip DRAM Size: 4096 MB Channels: 1 Width: 64-bit Data Rate: 6400 MT/s
CPU 0 runs /home/sumon/secure_berti/GhostMinion/../../traces/spec/602.gcc_s-2226B.champsimtrace.xz
.xz
BTB has LRU replacement policy
ITLB has LRU replacement policy
DTLB has LRU replacement policy
STLB has LRU replacement policy
L1I has LRU replacement policy
L0D has LRU replacement policy
CPU 0 L1D IP-based stride prefetcher
L1D has LRU replacement policy
L2C has LRU replacement policy
LLC has LRU replacement policy
Heartbeat CPU 0 instructions: 10000002 cycles: 7729303 heartbeat IPC: 1.29378 cumulative IPC: 1.29378 (Simulation time: 0 hr 0 min 53 sec) 
Heartbeat CPU 0 instructions: 20000000 cycles: 15480133 heartbeat IPC: 1.29018 cumulative IPC: 1.29198 (Simulation time: 0 hr 1 min 58 sec) 
Heartbeat CPU 0 instructions: 30000001 cycles: 23239120 heartbeat IPC: 1.28883 cumulative IPC: 1.29093 (Simulation time: 0 hr 2 min 54 sec) 
Heartbeat CPU 0 instructions: 40000002 cycles: 31001876 heartbeat IPC: 1.2882 cumulative IPC: 1.29024 (Simulation time: 0 hr 3 min 55 sec) 
Heartbeat CPU 0 instructions: 50000000 cycles: 38727844 heartbeat IPC: 1.29434 cumulative IPC: 1.29106 (Simulation time: 0 hr 5 min 7 sec) 

Warmup complete CPU 0 instructions: 50000004 cycles: 38727845 (Simulation time: 0 hr 5 min 7 sec) 

Heartbeat CPU 0 instructions: 60000002 cycles: 93791407 heartbeat IPC: 0.181608 cumulative IPC: 0.181608 (Simulation time: 0 hr 6 min 39 sec) 
Heartbeat CPU 0 instructions: 70000000 cycles: 148371299 heartbeat IPC: 0.183218 cumulative IPC: 0.182409 (Simulation time: 0 hr 7 min 55 sec) 
Heartbeat CPU 0 instructions: 80000000 cycles: 202786845 heartbeat IPC: 0.183771 cumulative IPC: 0.182861 (Simulation time: 0 hr 9 min 11 sec) 
Heartbeat CPU 0 instructions: 90000001 cycles: 257553216 heartbeat IPC: 0.182594 cumulative IPC: 0.182794 (Simulation time: 0 hr 10 min 27 sec) 
Heartbeat CPU 0 instructions: 100000001 cycles: 312350453 heartbeat IPC: 0.182491 cumulative IPC: 0.182733 (Simulation time: 0 hr 11 min 42 sec) 
Heartbeat CPU 0 instructions: 110000000 cycles: 366900530 heartbeat IPC: 0.183318 cumulative IPC: 0.182831 (Simulation time: 0 hr 12 min 57 sec) 
Heartbeat CPU 0 instructions: 120000000 cycles: 420965858 heartbeat IPC: 0.184961 cumulative IPC: 0.183132 (Simulation time: 0 hr 14 min 12 sec) 
Heartbeat CPU 0 instructions: 130000001 cycles: 475792610 heartbeat IPC: 0.182393 cumulative IPC: 0.183039 (Simulation time: 0 hr 15 min 28 sec) 
Heartbeat CPU 0 instructions: 140000000 cycles: 530487288 heartbeat IPC: 0.182833 cumulative IPC: 0.183016 (Simulation time: 0 hr 16 min 45 sec) 
Heartbeat CPU 0 instructions: 150000001 cycles: 585188404 heartbeat IPC: 0.182812 cumulative IPC: 0.182996 (Simulation time: 0 hr 18 min 0 sec) 
Heartbeat CPU 0 instructions: 160000002 cycles: 639654080 heartbeat IPC: 0.183602 cumulative IPC: 0.183051 (Simulation time: 0 hr 19 min 17 sec) 
Heartbeat CPU 0 instructions: 170000001 cycles: 694559113 heartbeat IPC: 0.182133 cumulative IPC: 0.182974 (Simulation time: 0 hr 20 min 33 sec) 
Heartbeat CPU 0 instructions: 180000000 cycles: 749107078 heartbeat IPC: 0.183325 cumulative IPC: 0.183001 (Simulation time: 0 hr 21 min 48 sec) 
Heartbeat CPU 0 instructions: 190000002 cycles: 803053537 heartbeat IPC: 0.185369 cumulative IPC: 0.183168 (Simulation time: 0 hr 23 min 0 sec) 
Heartbeat CPU 0 instructions: 200000000 cycles: 857806955 heartbeat IPC: 0.182637 cumulative IPC: 0.183132 (Simulation time: 0 hr 24 min 12 sec) 
Heartbeat CPU 0 instructions: 210000003 cycles: 912594787 heartbeat IPC: 0.182522 cumulative IPC: 0.183094 (Simulation time: 0 hr 25 min 23 sec) 
Heartbeat CPU 0 instructions: 220000000 cycles: 967194292 heartbeat IPC: 0.183152 cumulative IPC: 0.183098 (Simulation time: 0 hr 26 min 29 sec) 
Heartbeat CPU 0 instructions: 230000001 cycles: 1021782135 heartbeat IPC: 0.183191 cumulative IPC: 0.183103 (Simulation time: 0 hr 27 min 33 sec) 
Heartbeat CPU 0 instructions: 240000001 cycles: 1076599332 heartbeat IPC: 0.182425 cumulative IPC: 0.183067 (Simulation time: 0 hr 28 min 36 sec) 
Heartbeat CPU 0 instructions: 250000000 cycles: 1131279201 heartbeat IPC: 0.182883 cumulative IPC: 0.183058 (Simulation time: 0 hr 29 min 38 sec) 
Finished CPU 0 instructions: 200000000 cycles: 1092551357 cumulative IPC: 0.183058 (Simulation time: 0 hr 29 min 38 sec) 
 Instruction ID: 250000380

ChampSim completed all CPUs

Region of Interest Statistics

CPU 0 cumulative IPC: 0.183058 instructions: 200000000 cycles: 1092551357
ITLB SPEC fills:          0  NON-SPEC fills:          0
ITLB Test counter :          0
ITLB Leapfrog:          0
ITLB MSHR merge:          0
ITLB TOTAL     ACCESS:   39848478  HIT:   39848478  MISS:          0  HIT %:        100  MISS %:          0   MPKI: 0
ITLB LOAD TRANSLATION NON_SPEC    ACCESS:   39848478  HIT:   39848478  MISS:          0  HIT %:        100  MISS %:          0   MPKI: 0
ITLB PREFETCH  REQUESTED:          0  ISSUED:          0  USEFUL:          0  USELESS:          0
ITLB USEFUL LOAD PREFETCHES:          0 PREFETCH ISSUED TO LOWER LEVEL:          0  ACCURACY: -nan
ITLB TIMELY PREFETCHES:          0 LATE PREFETCHES: 0 DROPPED PREFETCHES: 0
ITLB COMMIT LATE PREFETCHES: 0 NORMAL LATE: 0 MISSED OPPORTUNITY: 0 UNCOVERED: 0
ITLB PREFETCHES SAME FILL-ORIGIN LEVEL: 0 DIFFERENT FILL-ORIGIN LEVEL: 0
ITLB AVERAGE MISS LATENCY: -nan cycles
ITLB AVERAGE MISS LATENCY LOAD: -nan cycles
ITLB AVERAGE MISS LATENCY PREFETCH: -nan cycles
ITLB AVERAGE MSHR OCCUPANCY: 0
ITLB MSHR FULL: 0
ITLB RQ	ACCESS:   40546306	FORWARD:          0	MERGED:     697828	TO_CACHE:   39848478

DTLB SPEC fills:          0  NON-SPEC fills:          0
DTLB Test counter :          0
DTLB Leapfrog:          0
DTLB MSHR merge:          0
DTLB TOTAL     ACCESS:   31325643  HIT:   31052242  MISS:     273401  HIT %:    99.1272  MISS %:   0.872771   MPKI: 1.36701
DTLB LOAD TRANSLATION NON_SPEC    ACCESS:   31325643  HIT:   31052242  MISS:     273401  HIT %:    99.1272  MISS %:   0.872771   MPKI: 1.36701
DTLB PREFETCH  REQUESTED:          0  ISSUED:          0  USEFUL:          0  USELESS:          0
DTLB USEFUL LOAD PREFETCHES:          0 PREFETCH ISSUED TO LOWER LEVEL:          0  ACCURACY: -nan
DTLB TIMELY PREFETCHES:          0 LATE PREFETCHES: 0 DROPPED PREFETCHES: 0
DTLB COMMIT LATE PREFETCHES: 0 NORMAL LATE: 0 MISSED OPPORTUNITY: 0 UNCOVERED: 0
DTLB PREFETCHES SAME FILL-ORIGIN LEVEL: 0 DIFFERENT FILL-ORIGIN LEVEL: 0
DTLB AVERAGE MISS LATENCY: 114.529 cycles
DTLB AVERAGE MISS LATENCY LOAD: -nan cycles
DTLB AVERAGE MISS LATENCY PREFETCH: -nan cycles
DTLB AVERAGE MSHR OCCUPANCY: 0.00472448
DTLB MSHR FULL: 0
DTLB RQ	ACCESS:   36903219	FORWARD:          0	MERGED:    5576411	TO_CACHE:   31326808

STLB SPEC fills:          0  NON-SPEC fills:          0
STLB Test counter :          0
STLB Leapfrog:          0
STLB MSHR merge:          0
STLB TOTAL     ACCESS:   12749838  HIT:   12486303  MISS:     263535  HIT %:     97.933  MISS %:    2.06697   MPKI: 1.31767
STLB LOAD TRANSLATION NON_SPEC    ACCESS:     273401  HIT:       9872  MISS:     263529  HIT %:    3.61081  MISS %:    96.3892   MPKI: 1.31764
STLB TRANSLATION FROM L1D PREFETCHER NON_SPEC    ACCESS:   12476437  HIT:   12476431  MISS:          6  HIT %:        100  MISS %: 4.80907e-05   MPKI: 3e-05
STLB PREFETCH  REQUESTED:          0  ISSUED:          0  USEFUL:          6  USELESS:          0
STLB USEFUL LOAD PREFETCHES:          6 PREFETCH ISSUED TO LOWER LEVEL:          0  ACCURACY: inf
STLB TIMELY PREFETCHES:          6 LATE PREFETCHES: 0 DROPPED PREFETCHES: 0
STLB COMMIT LATE PREFETCHES: 0 NORMAL LATE: 0 MISSED OPPORTUNITY: 0 UNCOVERED: 0
STLB PREFETCHES SAME FILL-ORIGIN LEVEL: 0 DIFFERENT FILL-ORIGIN LEVEL: 0
STLB AVERAGE MISS LATENCY: 109.48 cycles
STLB AVERAGE MISS LATENCY LOAD: -nan cycles
STLB AVERAGE MISS LATENCY PREFETCH: -nan cycles
STLB AVERAGE MSHR OCCUPANCY: 0.000441888
STLB MSHR FULL: 0
STLB RQ	ACCESS:   35217089	FORWARD:          0	MERGED:   22467251	TO_CACHE:   12749838

STLB Hit, L1D data hit: 0
STLB Hit, L2C data hit: 0
STLB Hit, LLC data hit: 0
STLB Hit, LLC data miss: 0
STLB STLB hints to L2: 0
L0D SPEC fills:   11612752  NON-SPEC fills:          0
L0D TimeGuard Request with older TS:      47017 Restricted eviction:       3883 read:      77758
L0D Test counter :          0
L0D Leapfrog:          0
L0D MSHR merge:    2727703
L0D TOTAL     ACCESS:   31222653  HIT:    1704345  MISS:   29518308  HIT %:    5.45868  MISS %:    94.5413   MPKI: 147.592
L0D LOAD      TOTAL       ACCESS:   31222653  HIT:    1704345  MISS:   29518308  HIT %:    5.45868  MISS %:    94.5413   MPKI: 147.592
L0D LOAD      NON_SPEC    ACCESS:   17938921  HIT:      37248  MISS:   17901673  HIT %:   0.207638  MISS %:    99.7924   MPKI: 89.5084
L0D LOAD      SPEC        ACCESS:   13283732  HIT:    1667097  MISS:   11616635  HIT %:    12.5499  MISS %:    87.4501   MPKI: 58.0832
L0D PREFETCH  REQUESTED:          0  ISSUED:          0  USEFUL:          0  USELESS:          0
L0D USEFUL LOAD PREFETCHES:          0 PREFETCH ISSUED TO LOWER LEVEL:          0  ACCURACY: -nan
L0D TIMELY PREFETCHES:          0 LATE PREFETCHES: 0 DROPPED PREFETCHES: 0
L0D COMMIT LATE PREFETCHES: 0 NORMAL LATE: 0 MISSED OPPORTUNITY: 0 UNCOVERED: 29518308
L0D PREFETCHES SAME FILL-ORIGIN LEVEL: 0 DIFFERENT FILL-ORIGIN LEVEL: 0
L0D AVERAGE MISS LATENCY: 30.8869 cycles
L0D AVERAGE MISS LATENCY LOAD: 30.8869 cycles
L0D AVERAGE MISS LATENCY PREFETCH: -nan cycles
L0D AVERAGE MSHR OCCUPANCY: 0.350053
L0D MSHR FULL: 6.1855e-07
L0D RQ	ACCESS:   71746989	FORWARD:          0	MERGED:   37796634	TO_CACHE:   33950355
L0D WQ	ACCESS:    2952864	FORWARD:          0	MERGED:          0	TO_CACHE:    2952864

L1D SPEC fills:          0  NON-SPEC fills:    5522649
L1D Test counter :          0
L1D Leapfrog:          0
L1D MSHR merge:    6611932
L1D TOTAL     ACCESS:   87362129  HIT:   71349110  MISS:   16013019  HIT %:    81.6705  MISS %:    18.3295   MPKI: 80.0651
L1D LOAD      TOTAL       ACCESS:   29518240  HIT:   22080217  MISS:    7438023  HIT %:    74.8019  MISS %:    25.1981   MPKI: 37.1901
L1D LOAD      NON_SPEC    ACCESS:   17901666  HIT:   12379017  MISS:    5522649  HIT %:    69.1501  MISS %:    30.8499   MPKI: 27.6132
L1D LOAD      SPEC        ACCESS:   11616574  HIT:    9701200  MISS:    1915374  HIT %:    83.5117  MISS %:    16.4883   MPKI: 9.57687
L1D RFO       NON_SPEC    ACCESS:    2938947  HIT:    2934319  MISS:       4628  HIT %:    99.8425  MISS %:   0.157471   MPKI: 0.02314
L1D PREFETCH  NON_SPEC    ACCESS:   10687359  HIT:    4030060  MISS:    6657299  HIT %:    37.7087  MISS %:    62.2913   MPKI: 33.2865
L1D COMMIT LOAD NON_SPEC    ACCESS:   32616784  HIT:   32616304  MISS:        480  HIT %:    99.9985  MISS %: 0.00147163   MPKI: 0.0024
L1D COMMIT WRITE NON_SPEC    ACCESS:   11600799  HIT:    9688210  MISS:    1912589  HIT %:    83.5133  MISS %:    16.4867   MPKI: 9.56294
L1D PREFETCH  REQUESTED:   37180503  ISSUED:   37180503  USEFUL:    6555729  USELESS:     101572
L1D USEFUL LOAD PREFETCHES:    6555729 PREFETCH ISSUED TO LOWER LEVEL:   13269414  ACCURACY: 49.4048
L1D TIMELY PREFETCHES:    6555729 LATE PREFETCHES: 6611864 DROPPED PREFETCHES: 0
L1D COMMIT LATE PREFETCHES: 0 NORMAL LATE: 6611864 MISSED OPPORTUNITY: 0 UNCOVERED: 826159
L1D PREFETCHES SAME FILL-ORIGIN LEVEL: 13269352 DIFFERENT FILL-ORIGIN LEVEL: 62
L1D AVERAGE MISS LATENCY: 144.622 cycles
L1D AVERAGE MISS LATENCY LOAD: 105.96 cycles
L1D AVERAGE MISS LATENCY PREFETCH: 229.332 cycles
L1D AVERAGE MSHR OCCUPANCY: 1.84145
L1D MSHR FULL: 0
L1D RQ	ACCESS:   71711771	FORWARD:          0	MERGED:    9058231	TO_CACHE:   62135115
L1D WQ	ACCESS:   14554422	FORWARD:     518425	MERGED:      14646	TO_CACHE:   14539776
L1D PQ	ACCESS:   37180503	FORWARD:          0	MERGED:    2236815	TO_CACHE:   34943688

L1D UNIQUE REGIONS ACCESSED: 0
L1D REGIONS CONFLICTS: 0
L1D Cross Page Prefetch Requests: 0
L1D Same Page Prefetch Requests: 46478724
L1D ROI Sum of L1D PQ occupancy: 466665347
L1D PREFETCHES PUSHED FROM L2C: 0
L1I SPEC fills:          0  NON-SPEC fills:          0
L1I Test counter :          0
L1I Leapfrog:          0
L1I MSHR merge:          2
L1I TOTAL     ACCESS:   40546303  HIT:   40546278  MISS:         25  HIT %:    99.9999  MISS %: 6.16579e-05   MPKI: 0.000125
L1I LOAD      TOTAL       ACCESS:   40546303  HIT:   40546278  MISS:         25  HIT %:    99.9999  MISS %: 6.16579e-05   MPKI: 0.000125
L1I LOAD      NON_SPEC    ACCESS:   40546303  HIT:   40546278  MISS:         25  HIT %:    99.9999  MISS %: 6.16579e-05   MPKI: 0.000125
L1I PREFETCH  REQUESTED:          0  ISSUED:          0  USEFUL:          0  USELESS:          0
L1I USEFUL LOAD PREFETCHES:          0 PREFETCH ISSUED TO LOWER LEVEL:          0  ACCURACY: -nan
L1I TIMELY PREFETCHES:          0 LATE PREFETCHES: 0 DROPPED PREFETCHES: 0
L1I COMMIT LATE PREFETCHES: 0 NORMAL LATE: 0 MISSED OPPORTUNITY: 0 UNCOVERED: 25
L1I PREFETCHES SAME FILL-ORIGIN LEVEL: 0 DIFFERENT FILL-ORIGIN LEVEL: 0
L1I AVERAGE MISS LATENCY: 214 cycles
L1I AVERAGE MISS LATENCY LOAD: 214 cycles
L1I AVERAGE MISS LATENCY PREFETCH: -nan cycles
L1I AVERAGE MSHR OCCUPANCY: 3.20621e-07
L1I MSHR FULL: 0
L1I RQ	ACCESS:   61346479	FORWARD:          0	MERGED:   20800173	TO_CACHE:   40546306

BTB SPEC fills:          0  NON-SPEC fills:          0
BTB Test counter :          0
BTB Leapfrog:          0
BTB MSHR merge:          0
BTB TOTAL     ACCESS:   47939701  HIT:   47938639  MISS:       1062  HIT %:    99.9978  MISS %: 0.00221528   MPKI: 0.00531
BTB BRANCH_DIRECT_JUMP	ACCESS:     685292  HIT:     685256  MISS:         36
BTB BRANCH_INDIRECT	ACCESS:          0  HIT:          0  MISS:          0
BTB BRANCH_CONDITIONAL	ACCESS:   46577608  HIT:   46577530  MISS:         78
BTB BRANCH_DIRECT_CALL	ACCESS:     338400  HIT:     338384  MISS:         16
BTB BRANCH_INDIRECT_CALL	ACCESS:          0  HIT:          0  MISS:          0
BTB BRANCH_RETURN	ACCESS:     338401  HIT:     337469  MISS:        932
BTB BRANCH_OTHER ACCESS:          0  HIT:          0  MISS:          0

L2C SPEC fills:          0  NON-SPEC fills:     584122
L2C Test counter :          0
L2C Leapfrog:          0
L2C MSHR merge:          0
L2C TOTAL     ACCESS:   23543227  HIT:    9189158  MISS:   14354069  HIT %:     39.031  MISS %:     60.969   MPKI: 71.7703
L2C LOAD      TOTAL       ACCESS:     826184  HIT:      13780  MISS:     812404  HIT %:    1.66791  MISS %:    98.3321   MPKI: 4.06202
L2C LOAD      NON_SPEC    ACCESS:     592708  HIT:       8561  MISS:     584147  HIT %:    1.44439  MISS %:    98.5556   MPKI: 2.92074
L2C LOAD      SPEC        ACCESS:     233476  HIT:       5219  MISS:     228257  HIT %:    2.23535  MISS %:    97.7647   MPKI: 1.14129
L2C RFO       NON_SPEC    ACCESS:       4442  HIT:        114  MISS:       4328  HIT %:    2.56641  MISS %:    97.4336   MPKI: 0.02164
L2C PREFETCH  NON_SPEC    ACCESS:   13269411  HIT:      23331  MISS:   13246080  HIT %:   0.175825  MISS %:    99.8242   MPKI: 66.2304
L2C WRITEBACK NON_SPEC    ACCESS:       5604  HIT:       5597  MISS:          7  HIT %:    99.8751  MISS %:   0.124911   MPKI: 3.5e-05
L2C CLEAN_EVICTION NON_SPEC    ACCESS:    8119444  HIT:    7890655  MISS:     228789  HIT %:    97.1822  MISS %:    2.81779   MPKI: 1.14394
L2C COMMIT LOAD NON_SPEC    ACCESS:        474  HIT:        412  MISS:         62  HIT %:    86.9198  MISS %:    13.0802   MPKI: 0.00031
L2C LOAD TRANSLATION NON_SPEC    ACCESS:    1317638  HIT:    1255239  MISS:      62399  HIT %:    95.2643  MISS %:    4.73567   MPKI: 0.311995
L2C TRANSLATION FROM L1D PREFETCHER NON_SPEC    ACCESS:         30  HIT:         30  MISS:          0  HIT %:        100  MISS %:          0   MPKI: 0
L2C PREFETCH  REQUESTED:          0  ISSUED:          0  USEFUL:       9255  USELESS:   13236849
L2C USEFUL LOAD PREFETCHES:       9255 PREFETCH ISSUED TO LOWER LEVEL:   13246082  ACCURACY: 0.0698697
L2C TIMELY PREFETCHES:       9255 LATE PREFETCHES: 0 DROPPED PREFETCHES: 0
L2C COMMIT LATE PREFETCHES: 0 NORMAL LATE: 0 MISSED OPPORTUNITY: 0 UNCOVERED: 812404
L2C PREFETCHES SAME FILL-ORIGIN LEVEL: 61 DIFFERENT FILL-ORIGIN LEVEL: 0
L2C AVERAGE MISS LATENCY: 207.24 cycles
L2C AVERAGE MISS LATENCY LOAD: 200.138 cycles
L2C AVERAGE MISS LATENCY PREFETCH: 211.32 cycles
L2C AVERAGE MSHR OCCUPANCY: 0.383377
L2C MSHR FULL: 0
L2C RQ	ACCESS:    2148774	FORWARD:          0	MERGED:          0	TO_CACHE:    2148768
L2C WQ	ACCESS:    8125048	FORWARD:          6	MERGED:          0	TO_CACHE:    8125048
L2C PQ	ACCESS:   13269414	FORWARD:          0	MERGED:          0	TO_CACHE:   13269414

L2C Instructions Evicting Data 25
L2C Translations Evicting Data 62173
L2C Data Evicting Data 13773272
L2C Instructions Evicting Instructions 0
L2C Translations Evicting Instructions 0
L2C Data Evicting Instructions 25
L2C Instructions Evicting Translations 0
L2C Translations Evicting Translations 226
L2C Data Evicting Translations 61295
L2C Dense regions hint from L2: 0
PSCL5 SPEC fills:          0  NON-SPEC fills:          0
PSCL5 Test counter :          0
PSCL5 Leapfrog:          0
PSCL5 MSHR merge:          0
PSCL5 TOTAL     ACCESS:          0  HIT:          0  MISS:          0  HIT %:       -nan  MISS %:       -nan   MPKI: 0
PSCL5 PREFETCH  REQUESTED:          0  ISSUED:          0  USEFUL:          0  USELESS:          0
PSCL5 USEFUL LOAD PREFETCHES:          0 PREFETCH ISSUED TO LOWER LEVEL:          0  ACCURACY: -nan
PSCL5 TIMELY PREFETCHES:          0 LATE PREFETCHES: 0 DROPPED PREFETCHES: 0
PSCL5 COMMIT LATE PREFETCHES: 0 NORMAL LATE: 0 MISSED OPPORTUNITY: 0 UNCOVERED: 0
PSCL5 PREFETCHES SAME FILL-ORIGIN LEVEL: 0 DIFFERENT FILL-ORIGIN LEVEL: 0

PSCL4 SPEC fills:          0  NON-SPEC fills:          0
PSCL4 Test counter :          0
PSCL4 Leapfrog:          0
PSCL4 MSHR merge:          0
PSCL4 TOTAL     ACCESS:          0  HIT:          0  MISS:          0  HIT %:       -nan  MISS %:       -nan   MPKI: 0
PSCL4 PREFETCH  REQUESTED:          0  ISSUED:          0  USEFUL:          0  USELESS:          0
PSCL4 USEFUL LOAD PREFETCHES:          0 PREFETCH ISSUED TO LOWER LEVEL:          0  ACCURACY: -nan
PSCL4 TIMELY PREFETCHES:          0 LATE PREFETCHES: 0 DROPPED PREFETCHES: 0
PSCL4 COMMIT LATE PREFETCHES: 0 NORMAL LATE: 0 MISSED OPPORTUNITY: 0 UNCOVERED: 0
PSCL4 PREFETCHES SAME FILL-ORIGIN LEVEL: 0 DIFFERENT FILL-ORIGIN LEVEL: 0

PSCL3 SPEC fills:          0  NON-SPEC fills:          0
PSCL3 Test counter :          0
PSCL3 Leapfrog:          0
PSCL3 MSHR merge:          0
PSCL3 TOTAL     ACCESS:          0  HIT:          0  MISS:          0  HIT %:       -nan  MISS %:       -nan   MPKI: 0
PSCL3 PREFETCH  REQUESTED:          0  ISSUED:          0  USEFUL:          0  USELESS:          0
PSCL3 USEFUL LOAD PREFETCHES:          0 PREFETCH ISSUED TO LOWER LEVEL:          0  ACCURACY: -nan
PSCL3 TIMELY PREFETCHES:          0 LATE PREFETCHES: 0 DROPPED PREFETCHES: 0
PSCL3 COMMIT LATE PREFETCHES: 0 NORMAL LATE: 0 MISSED OPPORTUNITY: 0 UNCOVERED: 0
PSCL3 PREFETCHES SAME FILL-ORIGIN LEVEL: 0 DIFFERENT FILL-ORIGIN LEVEL: 0

PSCL2 SPEC fills:          0  NON-SPEC fills:          0
PSCL2 Test counter :          0
PSCL2 Leapfrog:          0
PSCL2 MSHR merge:          0
PSCL2 TOTAL     ACCESS:          0  HIT:          0  MISS:          0  HIT %:       -nan  MISS %:       -nan   MPKI: 0
PSCL2 PREFETCH  REQUESTED:          0  ISSUED:          0  USEFUL:          0  USELESS:          0
PSCL2 USEFUL LOAD PREFETCHES:          0 PREFETCH ISSUED TO LOWER LEVEL:          0  ACCURACY: -nan
PSCL2 TIMELY PREFETCHES:          0 LATE PREFETCHES: 0 DROPPED PREFETCHES: 0
PSCL2 COMMIT LATE PREFETCHES: 0 NORMAL LATE: 0 MISSED OPPORTUNITY: 0 UNCOVERED: 0
PSCL2 PREFETCHES SAME FILL-ORIGIN LEVEL: 0 DIFFERENT FILL-ORIGIN LEVEL: 0

LLC SPEC fills:          0  NON-SPEC fills:     583766
LLC Test counter :          0
LLC Leapfrog:          0
LLC MSHR merge:          0
LLC TOTAL     ACCESS:   22249826  HIT:    7901125  MISS:   14348701  HIT %:     35.511  MISS %:     64.489   MPKI: 71.7435
LLC LOAD      TOTAL       ACCESS:     812404  HIT:        506  MISS:     811898  HIT %:  0.0622843  MISS %:    99.9377   MPKI: 4.05949
LLC LOAD      NON_SPEC    ACCESS:     584147  HIT:        356  MISS:     583791  HIT %:  0.0609436  MISS %:    99.9391   MPKI: 2.91895
LLC LOAD      SPEC        ACCESS:     228257  HIT:        150  MISS:     228107  HIT %:  0.0657154  MISS %:    99.9343   MPKI: 1.14054
LLC RFO       NON_SPEC    ACCESS:       4328  HIT:          0  MISS:       4328  HIT %:          0  MISS %:        100   MPKI: 0.02164
LLC PREFETCH  NON_SPEC    ACCESS:   13246081  HIT:       1522  MISS:   13244559  HIT %:  0.0114902  MISS %:    99.9885   MPKI: 66.2228
LLC WRITEBACK NON_SPEC    ACCESS:       5592  HIT:       5585  MISS:          7  HIT %:    99.8748  MISS %:   0.125179   MPKI: 3.5e-05
LLC CLEAN_EVICTION NON_SPEC    ACCESS:    8118960  HIT:    7890199  MISS:     228761  HIT %:    97.1824  MISS %:    2.81761   MPKI: 1.1438
LLC COMMIT LOAD NON_SPEC    ACCESS:         62  HIT:          0  MISS:         62  HIT %:          0  MISS %:        100   MPKI: 0.00031
LLC LOAD TRANSLATION NON_SPEC    ACCESS:      62399  HIT:       3313  MISS:      59086  HIT %:    5.30938  MISS %:    94.6906   MPKI: 0.29543
LLC PREFETCH  REQUESTED:          0  ISSUED:          0  USEFUL:        111  USELESS:   13245070
LLC USEFUL LOAD PREFETCHES:        111 PREFETCH ISSUED TO LOWER LEVEL:   13244559  ACCURACY: 0.00083808
LLC TIMELY PREFETCHES:        111 LATE PREFETCHES: 0 DROPPED PREFETCHES: 0
LLC COMMIT LATE PREFETCHES: 0 NORMAL LATE: 0 MISSED OPPORTUNITY: 0 UNCOVERED: 811898
LLC PREFETCHES SAME FILL-ORIGIN LEVEL: 0 DIFFERENT FILL-ORIGIN LEVEL: 0
LLC AVERAGE MISS LATENCY: 177.928 cycles
LLC AVERAGE MISS LATENCY LOAD: 172.774 cycles
LLC AVERAGE MISS LATENCY PREFETCH: 181.341 cycles
LLC AVERAGE MSHR OCCUPANCY: 0.548709
LLC MSHR FULL: 0
LLC RQ	ACCESS:     879193	FORWARD:          0	MERGED:          0	TO_CACHE:     879193
LLC WQ	ACCESS:    8124552	FORWARD:          0	MERGED:          0	TO_CACHE:    8124552
LLC PQ	ACCESS:   13246082	FORWARD:          0	MERGED:          0	TO_CACHE:   13246082

LLC Dense regions hint to LLC: 0

RAW hits: 40587
Loads Generated: 71787579
Loads sent to L1D: 71746989
Stores Generated: 2952864
Stores sent to L1D: 2952864
Major fault: 0 Minor fault: 49083
Allocated PAGES: 49083
Total Load insts: 89672325
Total Non-spec loads: 18397796
Percentage of speculative loads: 79.4833

LeapFrogging counter: 10
Commit hits: 11601558 miss: 42193464
Commit hit %: 21.5662 miss %: 78.4338
Commits not translated: 0
Loads retired: 7438023
Stores retired: 2952864
Cache fills: 7438023
L1D response latency: 105.96 cycles
Load retirement latency: 116.509 cycles
OOO test counter: 0
Discarded buffer inserts: 11601558 hits: 1879 hit %: 0.0161961
Filter prediction accuracy: -nan
Speculative prefetch buffer size: 0
CPU 0 L1D PC-based stride prefetcher final stats
Degree: 3

DRAM Statistics
 CHANNEL 0
 RQ ROW_BUFFER_HIT:     658541  ROW_BUFFER_MISS:   13461392
 DBUS_CONGESTED:      19538
 WQ ROW_BUFFER_HIT:    4833158  ROW_BUFFER_MISS:    3299881  FULL:          0

 AVG_CONGESTED_CYCLE: 5
 All warmup complete: 2
Channel 0 Bank busy for read cycles: 0
Channel 0 Bank busy for write cycles: 0
Channel 0
Rank 0
0banks busy for read cycles: 4384849
0banks busy for write cycles: 3522
1banks busy for read cycles: 195490762
1banks busy for write cycles: 4413525
2banks busy for read cycles: 145236779
2banks busy for write cycles: 4679238
3banks busy for read cycles: 139047988
3banks busy for write cycles: 5012403
4banks busy for read cycles: 275334445
4banks busy for write cycles: 5587828
5banks busy for read cycles: 9310847
5banks busy for write cycles: 6678084
6banks busy for read cycles: 242786
6banks busy for write cycles: 9823042
7banks busy for read cycles: 3531
7banks busy for write cycles: 32751548
8banks busy for read cycles: 1356
8banks busy for write cycles: 254548825

CPU 0 Branch Prediction Accuracy: 99.7034% MPKI: 1.05731 Average ROB Occupancy at Mispredict: 265.416
Branch types
NOT_BRANCH: 128713672 64.3568%
BRANCH_DIRECT_JUMP: 685292 0.342646%
BRANCH_INDIRECT: 0 0%
BRANCH_CONDITIONAL: 69924233 34.9621%
BRANCH_DIRECT_CALL: 338400 0.1692%
BRANCH_INDIRECT_CALL: 0 0%
BRANCH_RETURN: 338401 0.169201%
BRANCH_OTHER: 0 0%

DRAM PAGES: 1048576
Allocated PAGES: 49083
