
*** ChampSim Multicore Out-of-Order Simulator ***

Warmup Instructions: 50000000
Simulation Instructions: 200000000
Number of CPUs: 1
LLC sets: 2048
LLC ways: 16
L0D sets: 16
L0D ways: 2
ROB size: 352
LQ size: 128
SQ size: 72
Secure Berti: OFF
Berti: OFF
Berti Fill: OFF
On commit prefetching: OFF
Hit-based filter: OFF
Time-guarding: ON
Free-slotting: ON
Leap-frogging: ON
Train prefetcher on L0D bypass: OFF
No translation penalty for prefetchers: OFF
Prefetch to L0D only: OFF
Prefetch to L1D only: OFF
Clean evictions: ON
Commit loads: ON
Commit write: ON
Fill commit loads to L2C, LLC: ON
DRAM IO FREQUENCY: 6400
ROB SIZE: 352
Off-chip DRAM Size: 4096 MB Channels: 1 Width: 64-bit Data Rate: 6400 MT/s
CPU 0 runs /home/sumon/secure_berti/GhostMinion/../../traces/spec/602.gcc_s-734B.champsimtrace.xz
.xz
BTB has LRU replacement policy
ITLB has LRU replacement policy
DTLB has LRU replacement policy
STLB has LRU replacement policy
L1I has LRU replacement policy
L0D has LRU replacement policy
CPU 0 L1D IP-based stride prefetcher
L1D has LRU replacement policy
L2C has LRU replacement policy
LLC has LRU replacement policy
Heartbeat CPU 0 instructions: 10000002 cycles: 6637157 heartbeat IPC: 1.50667 cumulative IPC: 1.50667 (Simulation time: 0 hr 0 min 41 sec) 
Heartbeat CPU 0 instructions: 20000000 cycles: 13257310 heartbeat IPC: 1.51054 cumulative IPC: 1.5086 (Simulation time: 0 hr 1 min 25 sec) 
Heartbeat CPU 0 instructions: 30000000 cycles: 19893072 heartbeat IPC: 1.50699 cumulative IPC: 1.50806 (Simulation time: 0 hr 2 min 17 sec) 
Heartbeat CPU 0 instructions: 40000002 cycles: 26557271 heartbeat IPC: 1.50056 cumulative IPC: 1.50618 (Simulation time: 0 hr 3 min 2 sec) 
Heartbeat CPU 0 instructions: 50000000 cycles: 33194943 heartbeat IPC: 1.50655 cumulative IPC: 1.50625 (Simulation time: 0 hr 3 min 48 sec) 

Warmup complete CPU 0 instructions: 50000001 cycles: 33194944 (Simulation time: 0 hr 3 min 48 sec) 

Heartbeat CPU 0 instructions: 60000000 cycles: 54536615 heartbeat IPC: 0.468567 cumulative IPC: 0.468567 (Simulation time: 0 hr 4 min 58 sec) 
Heartbeat CPU 0 instructions: 70000002 cycles: 77105410 heartbeat IPC: 0.44309 cumulative IPC: 0.455472 (Simulation time: 0 hr 6 min 10 sec) 
Heartbeat CPU 0 instructions: 80000000 cycles: 98401967 heartbeat IPC: 0.469559 cumulative IPC: 0.460073 (Simulation time: 0 hr 7 min 26 sec) 
Heartbeat CPU 0 instructions: 90000000 cycles: 119901139 heartbeat IPC: 0.465134 cumulative IPC: 0.461328 (Simulation time: 0 hr 8 min 43 sec) 
Heartbeat CPU 0 instructions: 100000000 cycles: 152557298 heartbeat IPC: 0.306221 cumulative IPC: 0.418893 (Simulation time: 0 hr 10 min 26 sec) 
Heartbeat CPU 0 instructions: 110000000 cycles: 173773617 heartbeat IPC: 0.471335 cumulative IPC: 0.426807 (Simulation time: 0 hr 12 min 31 sec) 
Heartbeat CPU 0 instructions: 120000000 cycles: 195248054 heartbeat IPC: 0.46567 cumulative IPC: 0.431957 (Simulation time: 0 hr 14 min 29 sec) 
Heartbeat CPU 0 instructions: 130000001 cycles: 219293743 heartbeat IPC: 0.415875 cumulative IPC: 0.429879 (Simulation time: 0 hr 16 min 41 sec) 
Heartbeat CPU 0 instructions: 140000001 cycles: 240675770 heartbeat IPC: 0.467683 cumulative IPC: 0.433775 (Simulation time: 0 hr 18 min 56 sec) 
Heartbeat CPU 0 instructions: 150000000 cycles: 262266943 heartbeat IPC: 0.463152 cumulative IPC: 0.436544 (Simulation time: 0 hr 21 min 11 sec) 
Heartbeat CPU 0 instructions: 160000003 cycles: 284172301 heartbeat IPC: 0.456509 cumulative IPC: 0.438287 (Simulation time: 0 hr 22 min 47 sec) 
Heartbeat CPU 0 instructions: 170000000 cycles: 305414061 heartbeat IPC: 0.470771 cumulative IPC: 0.440821 (Simulation time: 0 hr 24 min 5 sec) 
Heartbeat CPU 0 instructions: 180000000 cycles: 327095525 heartbeat IPC: 0.461223 cumulative IPC: 0.442326 (Simulation time: 0 hr 25 min 22 sec) 
Heartbeat CPU 0 instructions: 190000002 cycles: 351775709 heartbeat IPC: 0.405183 cumulative IPC: 0.439449 (Simulation time: 0 hr 26 min 39 sec) 
Heartbeat CPU 0 instructions: 200000001 cycles: 374142651 heartbeat IPC: 0.447088 cumulative IPC: 0.43995 (Simulation time: 0 hr 27 min 46 sec) 
Heartbeat CPU 0 instructions: 210000000 cycles: 395431135 heartbeat IPC: 0.469737 cumulative IPC: 0.441701 (Simulation time: 0 hr 28 min 48 sec) 
Heartbeat CPU 0 instructions: 220000000 cycles: 417208106 heartbeat IPC: 0.459201 cumulative IPC: 0.442693 (Simulation time: 0 hr 29 min 45 sec) 
Heartbeat CPU 0 instructions: 230000002 cycles: 438486258 heartbeat IPC: 0.469966 cumulative IPC: 0.444125 (Simulation time: 0 hr 30 min 39 sec) 
Heartbeat CPU 0 instructions: 240000001 cycles: 459904874 heartbeat IPC: 0.466884 cumulative IPC: 0.445267 (Simulation time: 0 hr 31 min 28 sec) 
Heartbeat CPU 0 instructions: 250000002 cycles: 482385063 heartbeat IPC: 0.444836 cumulative IPC: 0.445246 (Simulation time: 0 hr 32 min 15 sec) 
Finished CPU 0 instructions: 200000001 cycles: 449190119 cumulative IPC: 0.445246 (Simulation time: 0 hr 32 min 15 sec) 
 Instruction ID: 250000360

ChampSim completed all CPUs

Region of Interest Statistics

CPU 0 cumulative IPC: 0.445246 instructions: 200000001 cycles: 449190119
ITLB SPEC fills:          0  NON-SPEC fills:          0
ITLB Test counter :          0
ITLB Leapfrog:          0
ITLB MSHR merge:          0
ITLB TOTAL     ACCESS:   44839759  HIT:   44839749  MISS:         10  HIT %:        100  MISS %: 2.23016e-05   MPKI: 5e-05
ITLB LOAD TRANSLATION NON_SPEC    ACCESS:   44839759  HIT:   44839749  MISS:         10  HIT %:        100  MISS %: 2.23016e-05   MPKI: 5e-05
ITLB PREFETCH  REQUESTED:          0  ISSUED:          0  USEFUL:          0  USELESS:          0
ITLB USEFUL LOAD PREFETCHES:          0 PREFETCH ISSUED TO LOWER LEVEL:          0  ACCURACY: -nan
ITLB TIMELY PREFETCHES:          0 LATE PREFETCHES: 0 DROPPED PREFETCHES: 0
ITLB COMMIT LATE PREFETCHES: 0 NORMAL LATE: 0 MISSED OPPORTUNITY: 0 UNCOVERED: 0
ITLB PREFETCHES SAME FILL-ORIGIN LEVEL: 0 DIFFERENT FILL-ORIGIN LEVEL: 0
ITLB AVERAGE MISS LATENCY: 345.9 cycles
ITLB AVERAGE MISS LATENCY LOAD: -nan cycles
ITLB AVERAGE MISS LATENCY PREFETCH: -nan cycles
ITLB AVERAGE MSHR OCCUPANCY: 8.92065e-08
ITLB MSHR FULL: 0
ITLB RQ	ACCESS:   49627776	FORWARD:          0	MERGED:    4788012	TO_CACHE:   44839764

DTLB SPEC fills:          0  NON-SPEC fills:          0
DTLB Test counter :          0
DTLB Leapfrog:          0
DTLB MSHR merge:          0
DTLB TOTAL     ACCESS:   60266194  HIT:   60057802  MISS:     208392  HIT %:    99.6542  MISS %:   0.345786   MPKI: 1.04196
DTLB LOAD TRANSLATION NON_SPEC    ACCESS:   60266194  HIT:   60057802  MISS:     208392  HIT %:    99.6542  MISS %:   0.345786   MPKI: 1.04196
DTLB PREFETCH  REQUESTED:          0  ISSUED:          0  USEFUL:          0  USELESS:          0
DTLB USEFUL LOAD PREFETCHES:          0 PREFETCH ISSUED TO LOWER LEVEL:          0  ACCURACY: -nan
DTLB TIMELY PREFETCHES:          0 LATE PREFETCHES: 0 DROPPED PREFETCHES: 0
DTLB COMMIT LATE PREFETCHES: 0 NORMAL LATE: 0 MISSED OPPORTUNITY: 0 UNCOVERED: 0
DTLB PREFETCHES SAME FILL-ORIGIN LEVEL: 0 DIFFERENT FILL-ORIGIN LEVEL: 0
DTLB AVERAGE MISS LATENCY: 45.9825 cycles
DTLB AVERAGE MISS LATENCY LOAD: -nan cycles
DTLB AVERAGE MISS LATENCY PREFETCH: -nan cycles
DTLB AVERAGE MSHR OCCUPANCY: 0.00409635
DTLB MSHR FULL: 0
DTLB RQ	ACCESS:   63390214	FORWARD:          0	MERGED:    3120681	TO_CACHE:   60269533

STLB SPEC fills:          0  NON-SPEC fills:          0
STLB Test counter :          0
STLB Leapfrog:          0
STLB MSHR merge:          0
STLB TOTAL     ACCESS:    8026589  HIT:    7973991  MISS:      52598  HIT %:    99.3447  MISS %:   0.655297   MPKI: 0.26299
STLB LOAD TRANSLATION NON_SPEC    ACCESS:     208402  HIT:     155809  MISS:      52593  HIT %:    74.7637  MISS %:    25.2363   MPKI: 0.262965
STLB TRANSLATION FROM L1D PREFETCHER NON_SPEC    ACCESS:    7818187  HIT:    7818182  MISS:          5  HIT %:    99.9999  MISS %: 6.39534e-05   MPKI: 2.5e-05
STLB PREFETCH  REQUESTED:          0  ISSUED:          0  USEFUL:          5  USELESS:          0
STLB USEFUL LOAD PREFETCHES:          5 PREFETCH ISSUED TO LOWER LEVEL:          0  ACCURACY: inf
STLB TIMELY PREFETCHES:          5 LATE PREFETCHES: 0 DROPPED PREFETCHES: 0
STLB COMMIT LATE PREFETCHES: 0 NORMAL LATE: 0 MISSED OPPORTUNITY: 0 UNCOVERED: 0
STLB PREFETCHES SAME FILL-ORIGIN LEVEL: 0 DIFFERENT FILL-ORIGIN LEVEL: 0
STLB AVERAGE MISS LATENCY: 146.615 cycles
STLB AVERAGE MISS LATENCY LOAD: -nan cycles
STLB AVERAGE MISS LATENCY PREFETCH: -nan cycles
STLB AVERAGE MSHR OCCUPANCY: 0.00341129
STLB MSHR FULL: 0
STLB RQ	ACCESS:   20250039	FORWARD:          0	MERGED:   12223450	TO_CACHE:    8026589

STLB Hit, L1D data hit: 0
STLB Hit, L2C data hit: 0
STLB Hit, LLC data hit: 0
STLB Hit, LLC data miss: 0
STLB STLB hints to L2: 0
L0D SPEC fills:   17675965  NON-SPEC fills:          0
L0D TimeGuard Request with older TS:     457762 Restricted eviction:      21291 read:    1813171
L0D Test counter :          0
L0D Leapfrog:          0
L0D MSHR merge:    1678916
L0D TOTAL     ACCESS:   39771501  HIT:    6880050  MISS:   32891451  HIT %:    17.2989  MISS %:    82.7011   MPKI: 164.457
L0D LOAD      TOTAL       ACCESS:   39771501  HIT:    6880050  MISS:   32891451  HIT %:    17.2989  MISS %:    82.7011   MPKI: 164.457
L0D LOAD      NON_SPEC    ACCESS:   15397983  HIT:     203788  MISS:   15194195  HIT %:    1.32347  MISS %:    98.6765   MPKI: 75.971
L0D LOAD      SPEC        ACCESS:   24373518  HIT:    6676262  MISS:   17697256  HIT %:    27.3915  MISS %:    72.6085   MPKI: 88.4863
L0D PREFETCH  REQUESTED:          0  ISSUED:          0  USEFUL:          0  USELESS:          0
L0D USEFUL LOAD PREFETCHES:          0 PREFETCH ISSUED TO LOWER LEVEL:          0  ACCURACY: -nan
L0D TIMELY PREFETCHES:          0 LATE PREFETCHES: 0 DROPPED PREFETCHES: 0
L0D COMMIT LATE PREFETCHES: 0 NORMAL LATE: 0 MISSED OPPORTUNITY: 0 UNCOVERED: 32891451
L0D PREFETCHES SAME FILL-ORIGIN LEVEL: 0 DIFFERENT FILL-ORIGIN LEVEL: 0
L0D AVERAGE MISS LATENCY: 6.48557 cycles
L0D AVERAGE MISS LATENCY LOAD: 6.48557 cycles
L0D AVERAGE MISS LATENCY PREFETCH: -nan cycles
L0D AVERAGE MSHR OCCUPANCY: 0.661161
L0D MSHR FULL: 0
L0D RQ	ACCESS:   52838943	FORWARD:          0	MERGED:   11388526	TO_CACHE:   41450417
L0D WQ	ACCESS:   21939797	FORWARD:          0	MERGED:          0	TO_CACHE:   21939797

L1D SPEC fills:          0  NON-SPEC fills:     198247
L1D Test counter :          0
L1D Leapfrog:          0
L1D MSHR merge:     153648
L1D TOTAL     ACCESS:   99928232  HIT:   95815444  MISS:    4112788  HIT %:    95.8843  MISS %:    4.11574   MPKI: 20.5639
L1D LOAD      TOTAL       ACCESS:   32890738  HIT:   32239231  MISS:     651507  HIT %:    98.0192  MISS %:    1.98082   MPKI: 3.25753
L1D LOAD      NON_SPEC    ACCESS:   15194058  HIT:   14995811  MISS:     198247  HIT %:    98.6952  MISS %:    1.30477   MPKI: 0.991235
L1D LOAD      SPEC        ACCESS:   17696680  HIT:   17243420  MISS:     453260  HIT %:    97.4387  MISS %:    2.56127   MPKI: 2.2663
L1D RFO       NON_SPEC    ACCESS:   21895285  HIT:   21893292  MISS:       1993  HIT %:    99.9909  MISS %: 0.00910242   MPKI: 0.009965
L1D PREFETCH  NON_SPEC    ACCESS:   17821196  HIT:   14803901  MISS:    3017295  HIT %:    83.0691  MISS %:    16.9309   MPKI: 15.0865
L1D COMMIT LOAD NON_SPEC    ACCESS:    9960760  HIT:    9957571  MISS:       3189  HIT %:     99.968  MISS %:  0.0320156   MPKI: 0.015945
L1D COMMIT WRITE NON_SPEC    ACCESS:   17360253  HIT:   16921449  MISS:     438804  HIT %:    97.4724  MISS %:    2.52764   MPKI: 2.19402
L1D PREFETCH  REQUESTED:   23213382  ISSUED:   23213382  USEFUL:    2940691  USELESS:      76583
L1D USEFUL LOAD PREFETCHES:    2940691 PREFETCH ISSUED TO LOWER LEVEL:    3170573  ACCURACY: 92.7495
L1D TIMELY PREFETCHES:    2940691 LATE PREFETCHES: 152935 DROPPED PREFETCHES: 0
L1D COMMIT LATE PREFETCHES: 0 NORMAL LATE: 152935 MISSED OPPORTUNITY: 0 UNCOVERED: 498572
L1D PREFETCHES SAME FILL-ORIGIN LEVEL: 3170300 DIFFERENT FILL-ORIGIN LEVEL: 273
L1D AVERAGE MISS LATENCY: 97.9223 cycles
L1D AVERAGE MISS LATENCY LOAD: 75.3557 cycles
L1D AVERAGE MISS LATENCY PREFETCH: 117.078 cycles
L1D AVERAGE MSHR OCCUPANCY: 0.770863
L1D MSHR FULL: 0
L1D RQ	ACCESS:   52954796	FORWARD:          0	MERGED:    9078917	TO_CACHE:   42852934
L1D WQ	ACCESS:   39311509	FORWARD:    1022945	MERGED:      53094	TO_CACHE:   39258415
L1D PQ	ACCESS:   23213382	FORWARD:          0	MERGED:    3171745	TO_CACHE:   20041637

L1D UNIQUE REGIONS ACCESSED: 0
L1D REGIONS CONFLICTS: 0
L1D Cross Page Prefetch Requests: 0
L1D Same Page Prefetch Requests: 29226705
L1D ROI Sum of L1D PQ occupancy: 274033439
L1D PREFETCHES PUSHED FROM L2C: 0
L1I SPEC fills:          0  NON-SPEC fills:          0
L1I Test counter :          0
L1I Leapfrog:          0
L1I MSHR merge:          9
L1I TOTAL     ACCESS:   49627765  HIT:   49627676  MISS:         89  HIT %:    99.9998  MISS %: 0.000179335   MPKI: 0.000445
L1I LOAD      TOTAL       ACCESS:   49627765  HIT:   49627676  MISS:         89  HIT %:    99.9998  MISS %: 0.000179335   MPKI: 0.000445
L1I LOAD      NON_SPEC    ACCESS:   49627765  HIT:   49627676  MISS:         89  HIT %:    99.9998  MISS %: 0.000179335   MPKI: 0.000445
L1I PREFETCH  REQUESTED:          0  ISSUED:          0  USEFUL:          0  USELESS:          0
L1I USEFUL LOAD PREFETCHES:          0 PREFETCH ISSUED TO LOWER LEVEL:          0  ACCURACY: -nan
L1I TIMELY PREFETCHES:          0 LATE PREFETCHES: 0 DROPPED PREFETCHES: 0
L1I COMMIT LATE PREFETCHES: 0 NORMAL LATE: 0 MISSED OPPORTUNITY: 0 UNCOVERED: 89
L1I PREFETCHES SAME FILL-ORIGIN LEVEL: 0 DIFFERENT FILL-ORIGIN LEVEL: 0
L1I AVERAGE MISS LATENCY: 210.27 cycles
L1I AVERAGE MISS LATENCY LOAD: 210.27 cycles
L1I AVERAGE MISS LATENCY PREFETCH: -nan cycles
L1I AVERAGE MSHR OCCUPANCY: 7.254e-07
L1I MSHR FULL: 0
L1I RQ	ACCESS:   79910856	FORWARD:          0	MERGED:   30283080	TO_CACHE:   49627776

BTB SPEC fills:          0  NON-SPEC fills:          0
BTB Test counter :          0
BTB Leapfrog:          0
BTB MSHR merge:          0
BTB TOTAL     ACCESS:   37936625  HIT:   37889779  MISS:      46846  HIT %:    99.8765  MISS %:   0.123485   MPKI: 0.23423
BTB BRANCH_DIRECT_JUMP	ACCESS:    4848253  HIT:    4848175  MISS:         78
BTB BRANCH_INDIRECT	ACCESS:          0  HIT:          0  MISS:          0
BTB BRANCH_CONDITIONAL	ACCESS:   28192639  HIT:   28192467  MISS:        172
BTB BRANCH_DIRECT_CALL	ACCESS:    2447841  HIT:    2447798  MISS:         43
BTB BRANCH_INDIRECT_CALL	ACCESS:         26  HIT:         25  MISS:          1
BTB BRANCH_RETURN	ACCESS:    2447866  HIT:    2401314  MISS:      46552
BTB BRANCH_OTHER ACCESS:          0  HIT:          0  MISS:          0

L2C SPEC fills:          0  NON-SPEC fills:      64206
L2C Test counter :          0
L2C Leapfrog:          0
L2C MSHR merge:          7
L2C TOTAL     ACCESS:    7350586  HIT:    5305115  MISS:    2045471  HIT %:    72.1727  MISS %:    27.8273   MPKI: 10.2274
L2C LOAD      TOTAL       ACCESS:     498655  HIT:     326590  MISS:     172065  HIT %:    65.4942  MISS %:    34.5058   MPKI: 0.860325
L2C LOAD      NON_SPEC    ACCESS:     112985  HIT:      48690  MISS:      64295  HIT %:    43.0942  MISS %:    56.9058   MPKI: 0.321475
L2C LOAD      SPEC        ACCESS:     385670  HIT:     277900  MISS:     107770  HIT %:    72.0564  MISS %:    27.9436   MPKI: 0.53885
L2C RFO       NON_SPEC    ACCESS:       1923  HIT:        383  MISS:       1540  HIT %:    19.9168  MISS %:    80.0832   MPKI: 0.0077
L2C PREFETCH  NON_SPEC    ACCESS:    3170492  HIT:    1427172  MISS:    1743320  HIT %:    45.0142  MISS %:    54.9858   MPKI: 8.7166
L2C WRITEBACK NON_SPEC    ACCESS:      14962  HIT:      14929  MISS:         33  HIT %:    99.7794  MISS %:   0.220559   MPKI: 0.000165
L2C CLEAN_EVICTION NON_SPEC    ACCESS:    3398414  HIT:    3290529  MISS:     107885  HIT %:    96.8254  MISS %:    3.17457   MPKI: 0.539425
L2C COMMIT LOAD NON_SPEC    ACCESS:       3189  HIT:       3125  MISS:         64  HIT %:    97.9931  MISS %:     2.0069   MPKI: 0.00032
L2C LOAD TRANSLATION NON_SPEC    ACCESS:     262926  HIT:     242370  MISS:      20556  HIT %:    92.1818  MISS %:    7.81817   MPKI: 0.10278
L2C TRANSLATION FROM L1D PREFETCHER NON_SPEC    ACCESS:         25  HIT:         17  MISS:          8  HIT %:         68  MISS %:         32   MPKI: 4e-05
L2C PREFETCH  REQUESTED:          0  ISSUED:          0  USEFUL:       4488  USELESS:    1738948
L2C USEFUL LOAD PREFETCHES:       4488 PREFETCH ISSUED TO LOWER LEVEL:    1743327  ACCURACY: 0.257439
L2C TIMELY PREFETCHES:       4488 LATE PREFETCHES: 7 DROPPED PREFETCHES: 0
L2C COMMIT LATE PREFETCHES: 0 NORMAL LATE: 7 MISSED OPPORTUNITY: 0 UNCOVERED: 172058
L2C PREFETCHES SAME FILL-ORIGIN LEVEL: 180 DIFFERENT FILL-ORIGIN LEVEL: 0
L2C AVERAGE MISS LATENCY: 181.231 cycles
L2C AVERAGE MISS LATENCY LOAD: 168.686 cycles
L2C AVERAGE MISS LATENCY PREFETCH: 193.637 cycles
L2C AVERAGE MSHR OCCUPANCY: 0.395672
L2C MSHR FULL: 0
L2C RQ	ACCESS:     766724	FORWARD:          0	MERGED:          0	TO_CACHE:     766718
L2C WQ	ACCESS:    3413380	FORWARD:          7	MERGED:          4	TO_CACHE:    3413376
L2C PQ	ACCESS:    3170573	FORWARD:          0	MERGED:          0	TO_CACHE:    3170572

L2C Instructions Evicting Data 85
L2C Translations Evicting Data 20202
L2C Data Evicting Data 1790146
L2C Instructions Evicting Instructions 0
L2C Translations Evicting Instructions 2
L2C Data Evicting Instructions 75
L2C Instructions Evicting Translations 4
L2C Translations Evicting Translations 360
L2C Data Evicting Translations 18909
L2C Dense regions hint from L2: 0
PSCL5 SPEC fills:          0  NON-SPEC fills:          0
PSCL5 Test counter :          0
PSCL5 Leapfrog:          0
PSCL5 MSHR merge:          0
PSCL5 TOTAL     ACCESS:          0  HIT:          0  MISS:          0  HIT %:       -nan  MISS %:       -nan   MPKI: 0
PSCL5 PREFETCH  REQUESTED:          0  ISSUED:          0  USEFUL:          0  USELESS:          0
PSCL5 USEFUL LOAD PREFETCHES:          0 PREFETCH ISSUED TO LOWER LEVEL:          0  ACCURACY: -nan
PSCL5 TIMELY PREFETCHES:          0 LATE PREFETCHES: 0 DROPPED PREFETCHES: 0
PSCL5 COMMIT LATE PREFETCHES: 0 NORMAL LATE: 0 MISSED OPPORTUNITY: 0 UNCOVERED: 0
PSCL5 PREFETCHES SAME FILL-ORIGIN LEVEL: 0 DIFFERENT FILL-ORIGIN LEVEL: 0

PSCL4 SPEC fills:          0  NON-SPEC fills:          0
PSCL4 Test counter :          0
PSCL4 Leapfrog:          0
PSCL4 MSHR merge:          0
PSCL4 TOTAL     ACCESS:          0  HIT:          0  MISS:          0  HIT %:       -nan  MISS %:       -nan   MPKI: 0
PSCL4 PREFETCH  REQUESTED:          0  ISSUED:          0  USEFUL:          0  USELESS:          0
PSCL4 USEFUL LOAD PREFETCHES:          0 PREFETCH ISSUED TO LOWER LEVEL:          0  ACCURACY: -nan
PSCL4 TIMELY PREFETCHES:          0 LATE PREFETCHES: 0 DROPPED PREFETCHES: 0
PSCL4 COMMIT LATE PREFETCHES: 0 NORMAL LATE: 0 MISSED OPPORTUNITY: 0 UNCOVERED: 0
PSCL4 PREFETCHES SAME FILL-ORIGIN LEVEL: 0 DIFFERENT FILL-ORIGIN LEVEL: 0

PSCL3 SPEC fills:          0  NON-SPEC fills:          0
PSCL3 Test counter :          0
PSCL3 Leapfrog:          0
PSCL3 MSHR merge:          0
PSCL3 TOTAL     ACCESS:          0  HIT:          0  MISS:          0  HIT %:       -nan  MISS %:       -nan   MPKI: 0
PSCL3 PREFETCH  REQUESTED:          0  ISSUED:          0  USEFUL:          0  USELESS:          0
PSCL3 USEFUL LOAD PREFETCHES:          0 PREFETCH ISSUED TO LOWER LEVEL:          0  ACCURACY: -nan
PSCL3 TIMELY PREFETCHES:          0 LATE PREFETCHES: 0 DROPPED PREFETCHES: 0
PSCL3 COMMIT LATE PREFETCHES: 0 NORMAL LATE: 0 MISSED OPPORTUNITY: 0 UNCOVERED: 0
PSCL3 PREFETCHES SAME FILL-ORIGIN LEVEL: 0 DIFFERENT FILL-ORIGIN LEVEL: 0

PSCL2 SPEC fills:          0  NON-SPEC fills:          0
PSCL2 Test counter :          0
PSCL2 Leapfrog:          0
PSCL2 MSHR merge:          0
PSCL2 TOTAL     ACCESS:          0  HIT:          0  MISS:          0  HIT %:       -nan  MISS %:       -nan   MPKI: 0
PSCL2 PREFETCH  REQUESTED:          0  ISSUED:          0  USEFUL:          0  USELESS:          0
PSCL2 USEFUL LOAD PREFETCHES:          0 PREFETCH ISSUED TO LOWER LEVEL:          0  ACCURACY: -nan
PSCL2 TIMELY PREFETCHES:          0 LATE PREFETCHES: 0 DROPPED PREFETCHES: 0
PSCL2 COMMIT LATE PREFETCHES: 0 NORMAL LATE: 0 MISSED OPPORTUNITY: 0 UNCOVERED: 0
PSCL2 PREFETCHES SAME FILL-ORIGIN LEVEL: 0 DIFFERENT FILL-ORIGIN LEVEL: 0

LLC SPEC fills:          0  NON-SPEC fills:      57050
LLC Test counter :          0
LLC Leapfrog:          0
LLC MSHR merge:          0
LLC TOTAL     ACCESS:    3700649  HIT:    1674043  MISS:    2026606  HIT %:    45.2365  MISS %:    54.7635   MPKI: 10.133
LLC LOAD      TOTAL       ACCESS:     172058  HIT:       9664  MISS:     162394  HIT %:    5.61671  MISS %:    94.3833   MPKI: 0.81197
LLC LOAD      NON_SPEC    ACCESS:      64295  HIT:       7156  MISS:      57139  HIT %:    11.1299  MISS %:    88.8701   MPKI: 0.285695
LLC LOAD      SPEC        ACCESS:     107763  HIT:       2508  MISS:     105255  HIT %:    2.32733  MISS %:    97.6727   MPKI: 0.526275
LLC RFO       NON_SPEC    ACCESS:       1540  HIT:         40  MISS:       1500  HIT %:     2.5974  MISS %:    97.4026   MPKI: 0.0075
LLC PREFETCH  NON_SPEC    ACCESS:    1743327  HIT:       9255  MISS:    1734072  HIT %:   0.530881  MISS %:    99.4691   MPKI: 8.67036
LLC WRITEBACK NON_SPEC    ACCESS:       7633  HIT:       6246  MISS:       1387  HIT %:    81.8289  MISS %:    18.1711   MPKI: 0.006935
LLC CLEAN_EVICTION NON_SPEC    ACCESS:    1755463  HIT:    1647086  MISS:     108377  HIT %:    93.8263  MISS %:     6.1737   MPKI: 0.541885
LLC COMMIT LOAD NON_SPEC    ACCESS:         64  HIT:          7  MISS:         57  HIT %:    10.9375  MISS %:    89.0625   MPKI: 0.000285
LLC LOAD TRANSLATION NON_SPEC    ACCESS:      20556  HIT:       1745  MISS:      18811  HIT %:    8.48901  MISS %:     91.511   MPKI: 0.094055
LLC TRANSLATION FROM L1D PREFETCHER NON_SPEC    ACCESS:          8  HIT:          0  MISS:          8  HIT %:          0  MISS %:        100   MPKI: 4e-05
LLC PREFETCH  REQUESTED:          0  ISSUED:          0  USEFUL:        618  USELESS:    1733511
LLC USEFUL LOAD PREFETCHES:        618 PREFETCH ISSUED TO LOWER LEVEL:    1734072  ACCURACY: 0.0356387
LLC TIMELY PREFETCHES:        618 LATE PREFETCHES: 0 DROPPED PREFETCHES: 0
LLC COMMIT LATE PREFETCHES: 0 NORMAL LATE: 0 MISSED OPPORTUNITY: 0 UNCOVERED: 162394
LLC PREFETCHES SAME FILL-ORIGIN LEVEL: 0 DIFFERENT FILL-ORIGIN LEVEL: 0
LLC AVERAGE MISS LATENCY: 154.706 cycles
LLC AVERAGE MISS LATENCY LOAD: 152.879 cycles
LLC AVERAGE MISS LATENCY PREFETCH: 164.504 cycles
LLC AVERAGE MSHR OCCUPANCY: 0.263487
LLC MSHR FULL: 0
LLC RQ	ACCESS:     194226	FORWARD:          0	MERGED:          0	TO_CACHE:     194226
LLC WQ	ACCESS:    1763096	FORWARD:          0	MERGED:          0	TO_CACHE:    1763096
LLC PQ	ACCESS:    1743327	FORWARD:          0	MERGED:          0	TO_CACHE:    1743327

LLC Dense regions hint to LLC: 0

RAW hits: 92879
Loads Generated: 52931823
Loads sent to L1D: 52838943
Stores Generated: 21939796
Stores sent to L1D: 21939797
Major fault: 0 Minor fault: 9448
Allocated PAGES: 9448
Total Load insts: 65955685
Total Non-spec loads: 18765653
Percentage of speculative loads: 71.5481

LeapFrogging counter: 0
Commit hits: 17371710 miss: 20063345
Commit hit %: 46.4049 miss %: 53.5951
Commits not translated: 0
Loads retired: 651507
Stores retired: 21939797
Cache fills: 651507
L1D response latency: 75.3557 cycles
Load retirement latency: 123.71 cycles
OOO test counter: 0
Discarded buffer inserts: 17371710 hits: 10517 hit %: 0.060541
Filter prediction accuracy: -nan
Speculative prefetch buffer size: 0
CPU 0 L1D PC-based stride prefetcher final stats
Degree: 3

DRAM Statistics
 CHANNEL 0
 RQ ROW_BUFFER_HIT:     143085  ROW_BUFFER_MISS:    1773757
 DBUS_CONGESTED:       4650
 WQ ROW_BUFFER_HIT:     503344  ROW_BUFFER_MISS:    1252767  FULL:          0

 AVG_CONGESTED_CYCLE: 2
 All warmup complete: 2
Channel 0 Bank busy for read cycles: 0
Channel 0 Bank busy for write cycles: 0
Channel 0
Rank 0
0banks busy for read cycles: 92976614
0banks busy for write cycles: 436001
1banks busy for read cycles: 176670924
1banks busy for write cycles: 63914147
2banks busy for read cycles: 18274571
2banks busy for write cycles: 41731827
3banks busy for read cycles: 9198072
3banks busy for write cycles: 16389619
4banks busy for read cycles: 7571737
4banks busy for write cycles: 7878607
5banks busy for read cycles: 363996
5banks busy for write cycles: 5476307
6banks busy for read cycles: 42237
6banks busy for write cycles: 1894907
7banks busy for read cycles: 8024
7banks busy for write cycles: 1463129
8banks busy for read cycles: 1993
8banks busy for write cycles: 4897408

CPU 0 Branch Prediction Accuracy: 99.9023% MPKI: 0.234695 Average ROB Occupancy at Mispredict: 80.1417
Branch types
NOT_BRANCH: 151969688 75.9848%
BRANCH_DIRECT_JUMP: 4848253 2.42413%
BRANCH_INDIRECT: 0 0%
BRANCH_CONDITIONAL: 38286306 19.1432%
BRANCH_DIRECT_CALL: 2447841 1.22392%
BRANCH_INDIRECT_CALL: 26 1.3e-05%
BRANCH_RETURN: 2447866 1.22393%
BRANCH_OTHER: 0 0%

DRAM PAGES: 1048576
Allocated PAGES: 9448
