
*** ChampSim Multicore Out-of-Order Simulator ***

Warmup Instructions: 50000000
Simulation Instructions: 200000000
Number of CPUs: 1
LLC sets: 2048
LLC ways: 16
L0D sets: 16
L0D ways: 2
ROB size: 352
LQ size: 128
SQ size: 72
Secure Berti: OFF
Berti: OFF
Berti Fill: OFF
On commit prefetching: OFF
Hit-based filter: OFF
Time-guarding: ON
Free-slotting: ON
Leap-frogging: ON
Train prefetcher on L0D bypass: OFF
No translation penalty for prefetchers: OFF
Prefetch to L0D only: OFF
Prefetch to L1D only: OFF
Clean evictions: ON
Commit loads: ON
Commit write: ON
Fill commit loads to L2C, LLC: ON
DRAM IO FREQUENCY: 6400
ROB SIZE: 352
Off-chip DRAM Size: 4096 MB Channels: 1 Width: 64-bit Data Rate: 6400 MT/s
CPU 0 runs /home/sumon/secure_berti/GhostMinion/../../traces/spec/605.mcf_s-665B.champsimtrace.xz
.xz
BTB has LRU replacement policy
ITLB has LRU replacement policy
DTLB has LRU replacement policy
STLB has LRU replacement policy
L1I has LRU replacement policy
L0D has LRU replacement policy
CPU 0 L1D IP-based stride prefetcher
L1D has LRU replacement policy
L2C has LRU replacement policy
LLC has LRU replacement policy
Heartbeat CPU 0 instructions: 10000000 cycles: 5664453 heartbeat IPC: 1.7654 cumulative IPC: 1.7654 (Simulation time: 0 hr 0 min 59 sec) 
Heartbeat CPU 0 instructions: 20000000 cycles: 11319052 heartbeat IPC: 1.76847 cumulative IPC: 1.76693 (Simulation time: 0 hr 1 min 52 sec) 
Heartbeat CPU 0 instructions: 30000002 cycles: 16981357 heartbeat IPC: 1.76607 cumulative IPC: 1.76664 (Simulation time: 0 hr 2 min 45 sec) 
Heartbeat CPU 0 instructions: 40000000 cycles: 22619549 heartbeat IPC: 1.77362 cumulative IPC: 1.76838 (Simulation time: 0 hr 3 min 38 sec) 
Heartbeat CPU 0 instructions: 50000000 cycles: 28283518 heartbeat IPC: 1.76555 cumulative IPC: 1.76781 (Simulation time: 0 hr 4 min 30 sec) 

Warmup complete CPU 0 instructions: 50000004 cycles: 28283519 (Simulation time: 0 hr 4 min 30 sec) 

Heartbeat CPU 0 instructions: 60000003 cycles: 62672106 heartbeat IPC: 0.290794 cumulative IPC: 0.290794 (Simulation time: 0 hr 5 min 33 sec) 
Heartbeat CPU 0 instructions: 70000003 cycles: 96860132 heartbeat IPC: 0.2925 cumulative IPC: 0.291645 (Simulation time: 0 hr 6 min 37 sec) 
Heartbeat CPU 0 instructions: 80000001 cycles: 131147430 heartbeat IPC: 0.291653 cumulative IPC: 0.291647 (Simulation time: 0 hr 7 min 45 sec) 
Heartbeat CPU 0 instructions: 90000001 cycles: 166234702 heartbeat IPC: 0.285004 cumulative IPC: 0.289958 (Simulation time: 0 hr 8 min 53 sec) 
Heartbeat CPU 0 instructions: 100000000 cycles: 199929230 heartbeat IPC: 0.296784 cumulative IPC: 0.291298 (Simulation time: 0 hr 10 min 2 sec) 
Heartbeat CPU 0 instructions: 110000000 cycles: 233659947 heartbeat IPC: 0.296466 cumulative IPC: 0.292146 (Simulation time: 0 hr 11 min 11 sec) 
Heartbeat CPU 0 instructions: 120000000 cycles: 267211739 heartbeat IPC: 0.298047 cumulative IPC: 0.292975 (Simulation time: 0 hr 12 min 21 sec) 
Heartbeat CPU 0 instructions: 130000000 cycles: 300698234 heartbeat IPC: 0.298628 cumulative IPC: 0.29367 (Simulation time: 0 hr 13 min 31 sec) 
Heartbeat CPU 0 instructions: 140000002 cycles: 334845129 heartbeat IPC: 0.292852 cumulative IPC: 0.293579 (Simulation time: 0 hr 14 min 42 sec) 
Heartbeat CPU 0 instructions: 150000000 cycles: 368752891 heartbeat IPC: 0.294918 cumulative IPC: 0.293712 (Simulation time: 0 hr 15 min 51 sec) 
Heartbeat CPU 0 instructions: 160000001 cycles: 402388965 heartbeat IPC: 0.2973 cumulative IPC: 0.294035 (Simulation time: 0 hr 17 min 3 sec) 
Heartbeat CPU 0 instructions: 170000003 cycles: 436577542 heartbeat IPC: 0.292495 cumulative IPC: 0.293906 (Simulation time: 0 hr 18 min 19 sec) 
Heartbeat CPU 0 instructions: 180000001 cycles: 470198155 heartbeat IPC: 0.297437 cumulative IPC: 0.294174 (Simulation time: 0 hr 19 min 35 sec) 
Heartbeat CPU 0 instructions: 190000002 cycles: 503935683 heartbeat IPC: 0.296406 cumulative IPC: 0.294333 (Simulation time: 0 hr 20 min 50 sec) 
Heartbeat CPU 0 instructions: 200000000 cycles: 537806364 heartbeat IPC: 0.295241 cumulative IPC: 0.294393 (Simulation time: 0 hr 22 min 1 sec) 
Heartbeat CPU 0 instructions: 210000000 cycles: 571553175 heartbeat IPC: 0.296324 cumulative IPC: 0.294513 (Simulation time: 0 hr 23 min 13 sec) 
Heartbeat CPU 0 instructions: 220000000 cycles: 604949107 heartbeat IPC: 0.299438 cumulative IPC: 0.294798 (Simulation time: 0 hr 24 min 23 sec) 
Heartbeat CPU 0 instructions: 230000000 cycles: 639408423 heartbeat IPC: 0.290197 cumulative IPC: 0.294539 (Simulation time: 0 hr 25 min 32 sec) 
Heartbeat CPU 0 instructions: 240000000 cycles: 672711851 heartbeat IPC: 0.300269 cumulative IPC: 0.294835 (Simulation time: 0 hr 26 min 39 sec) 
Heartbeat CPU 0 instructions: 250000002 cycles: 706287791 heartbeat IPC: 0.297832 cumulative IPC: 0.294983 (Simulation time: 0 hr 27 min 38 sec) 
Finished CPU 0 instructions: 200000002 cycles: 678004273 cumulative IPC: 0.294983 (Simulation time: 0 hr 27 min 38 sec) 
 Instruction ID: 250000015

ChampSim completed all CPUs

Region of Interest Statistics

CPU 0 cumulative IPC: 0.294983 instructions: 200000002 cycles: 678004273
ITLB SPEC fills:          0  NON-SPEC fills:          0
ITLB Test counter :          0
ITLB Leapfrog:          0
ITLB MSHR merge:          0
ITLB TOTAL     ACCESS:   36306563  HIT:   36306563  MISS:          0  HIT %:        100  MISS %:          0   MPKI: 0
ITLB LOAD TRANSLATION NON_SPEC    ACCESS:   36306563  HIT:   36306563  MISS:          0  HIT %:        100  MISS %:          0   MPKI: 0
ITLB PREFETCH  REQUESTED:          0  ISSUED:          0  USEFUL:          0  USELESS:          0
ITLB USEFUL LOAD PREFETCHES:          0 PREFETCH ISSUED TO LOWER LEVEL:          0  ACCURACY: -nan
ITLB TIMELY PREFETCHES:          0 LATE PREFETCHES: 0 DROPPED PREFETCHES: 0
ITLB COMMIT LATE PREFETCHES: 0 NORMAL LATE: 0 MISSED OPPORTUNITY: 0 UNCOVERED: 0
ITLB PREFETCHES SAME FILL-ORIGIN LEVEL: 0 DIFFERENT FILL-ORIGIN LEVEL: 0
ITLB AVERAGE MISS LATENCY: -nan cycles
ITLB AVERAGE MISS LATENCY LOAD: -nan cycles
ITLB AVERAGE MISS LATENCY PREFETCH: -nan cycles
ITLB AVERAGE MSHR OCCUPANCY: 0
ITLB MSHR FULL: 0
ITLB RQ	ACCESS:   38011826	FORWARD:          0	MERGED:    1705264	TO_CACHE:   36306562

DTLB SPEC fills:          0  NON-SPEC fills:          0
DTLB Test counter :          0
DTLB Leapfrog:          0
DTLB MSHR merge:          0
DTLB TOTAL     ACCESS:   67955832  HIT:   64960084  MISS:    2995748  HIT %:    95.5916  MISS %:    4.40838   MPKI: 14.9787
DTLB LOAD TRANSLATION NON_SPEC    ACCESS:   67955832  HIT:   64960084  MISS:    2995748  HIT %:    95.5916  MISS %:    4.40838   MPKI: 14.9787
DTLB PREFETCH  REQUESTED:          0  ISSUED:          0  USEFUL:          0  USELESS:          0
DTLB USEFUL LOAD PREFETCHES:          0 PREFETCH ISSUED TO LOWER LEVEL:          0  ACCURACY: -nan
DTLB TIMELY PREFETCHES:          0 LATE PREFETCHES: 0 DROPPED PREFETCHES: 0
DTLB COMMIT LATE PREFETCHES: 0 NORMAL LATE: 0 MISSED OPPORTUNITY: 0 UNCOVERED: 0
DTLB PREFETCHES SAME FILL-ORIGIN LEVEL: 0 DIFFERENT FILL-ORIGIN LEVEL: 0
DTLB AVERAGE MISS LATENCY: 11.1879 cycles
DTLB AVERAGE MISS LATENCY LOAD: -nan cycles
DTLB AVERAGE MISS LATENCY PREFETCH: -nan cycles
DTLB AVERAGE MSHR OCCUPANCY: 0.0238301
DTLB MSHR FULL: 0
DTLB RQ	ACCESS:   82040312	FORWARD:          0	MERGED:   13697462	TO_CACHE:   68342850

STLB SPEC fills:          0  NON-SPEC fills:          0
STLB Test counter :          0
STLB Leapfrog:          0
STLB MSHR merge:          0
STLB TOTAL     ACCESS:    5074999  HIT:    5033010  MISS:      41989  HIT %:    99.1726  MISS %:    0.82737   MPKI: 0.209945
STLB LOAD TRANSLATION NON_SPEC    ACCESS:    2995748  HIT:    2953759  MISS:      41989  HIT %:    98.5984  MISS %:    1.40162   MPKI: 0.209945
STLB TRANSLATION FROM L1D PREFETCHER NON_SPEC    ACCESS:    2079251  HIT:    2079251  MISS:          0  HIT %:        100  MISS %:          0   MPKI: 0
STLB PREFETCH  REQUESTED:          0  ISSUED:          0  USEFUL:          0  USELESS:          0
STLB USEFUL LOAD PREFETCHES:          0 PREFETCH ISSUED TO LOWER LEVEL:          0  ACCURACY: -nan
STLB TIMELY PREFETCHES:          0 LATE PREFETCHES: 0 DROPPED PREFETCHES: 0
STLB COMMIT LATE PREFETCHES: 0 NORMAL LATE: 0 MISSED OPPORTUNITY: 0 UNCOVERED: 0
STLB PREFETCHES SAME FILL-ORIGIN LEVEL: 0 DIFFERENT FILL-ORIGIN LEVEL: 0
STLB AVERAGE MISS LATENCY: 151.624 cycles
STLB AVERAGE MISS LATENCY LOAD: -nan cycles
STLB AVERAGE MISS LATENCY PREFETCH: -nan cycles
STLB AVERAGE MSHR OCCUPANCY: 0.0109098
STLB MSHR FULL: 0
STLB RQ	ACCESS:    9268818	FORWARD:          0	MERGED:    4193819	TO_CACHE:    5074999

STLB Hit, L1D data hit: 0
STLB Hit, L2C data hit: 0
STLB Hit, LLC data hit: 0
STLB Hit, LLC data miss: 0
STLB STLB hints to L2: 0
L0D SPEC fills:   34302650  NON-SPEC fills:          0
L0D TimeGuard Request with older TS:     148233 Restricted eviction:      61909 read:     228215
L0D Test counter :          0
L0D Leapfrog:          0
L0D MSHR merge:     993023
L0D TOTAL     ACCESS:   57372911  HIT:    3900528  MISS:   53472383  HIT %:    6.79855  MISS %:    93.2014   MPKI: 267.362
L0D LOAD      TOTAL       ACCESS:   57372911  HIT:    3900528  MISS:   53472383  HIT %:    6.79855  MISS %:    93.2014   MPKI: 267.362
L0D LOAD      NON_SPEC    ACCESS:   19616315  HIT:     508491  MISS:   19107824  HIT %:    2.59218  MISS %:    97.4078   MPKI: 95.5391
L0D LOAD      SPEC        ACCESS:   37756596  HIT:    3392037  MISS:   34364559  HIT %:    8.98396  MISS %:     91.016   MPKI: 171.823
L0D PREFETCH  REQUESTED:          0  ISSUED:          0  USEFUL:          0  USELESS:          0
L0D USEFUL LOAD PREFETCHES:          0 PREFETCH ISSUED TO LOWER LEVEL:          0  ACCURACY: -nan
L0D TIMELY PREFETCHES:          0 LATE PREFETCHES: 0 DROPPED PREFETCHES: 0
L0D COMMIT LATE PREFETCHES: 0 NORMAL LATE: 0 MISSED OPPORTUNITY: 0 UNCOVERED: 53472383
L0D PREFETCHES SAME FILL-ORIGIN LEVEL: 0 DIFFERENT FILL-ORIGIN LEVEL: 0
L0D AVERAGE MISS LATENCY: 11.4444 cycles
L0D AVERAGE MISS LATENCY LOAD: 11.4444 cycles
L0D AVERAGE MISS LATENCY PREFETCH: -nan cycles
L0D AVERAGE MSHR OCCUPANCY: 0.698308
L0D MSHR FULL: 0.00949597
L0D RQ	ACCESS:   67402909	FORWARD:          0	MERGED:    9036978	TO_CACHE:   58365931
L0D WQ	ACCESS:   23674381	FORWARD:          0	MERGED:          0	TO_CACHE:   23674381

L1D SPEC fills:          0  NON-SPEC fills:    2742894
L1D Test counter :          0
L1D Leapfrog:          0
L1D MSHR merge:     352619
L1D TOTAL     ACCESS:  123409675  HIT:  113868078  MISS:    9541597  HIT %:    92.2684  MISS %:    7.73164   MPKI: 47.708
L1D LOAD      TOTAL       ACCESS:   53470588  HIT:   48221988  MISS:    5248600  HIT %:    90.1841  MISS %:    9.81586   MPKI: 26.243
L1D LOAD      NON_SPEC    ACCESS:   19107576  HIT:   16364682  MISS:    2742894  HIT %:     85.645  MISS %:     14.355   MPKI: 13.7145
L1D LOAD      SPEC        ACCESS:   34363012  HIT:   31857306  MISS:    2505706  HIT %:    92.7081  MISS %:    7.29187   MPKI: 12.5285
L1D RFO       NON_SPEC    ACCESS:   20440657  HIT:   19712041  MISS:     728616  HIT %:    96.4355  MISS %:    3.56454   MPKI: 3.64308
L1D PREFETCH  NON_SPEC    ACCESS:    5079273  HIT:    4031880  MISS:    1047393  HIT %:    79.3791  MISS %:    20.6209   MPKI: 5.23696
L1D COMMIT LOAD NON_SPEC    ACCESS:   10191423  HIT:   10125308  MISS:      66115  HIT %:    99.3513  MISS %:   0.648732   MPKI: 0.330575
L1D COMMIT WRITE NON_SPEC    ACCESS:   34227734  HIT:   31776861  MISS:    2450873  HIT %:    92.8395  MISS %:    7.16049   MPKI: 12.2544
L1D PREFETCH  REQUESTED:    6775434  ISSUED:    6775434  USEFUL:    1008933  USELESS:      38448
L1D USEFUL LOAD PREFETCHES:    1008933 PREFETCH ISSUED TO LOWER LEVEL:    1457213  ACCURACY: 69.2372
L1D TIMELY PREFETCHES:    1008933 LATE PREFETCHES: 350823 DROPPED PREFETCHES: 0
L1D COMMIT LATE PREFETCHES: 0 NORMAL LATE: 350823 MISSED OPPORTUNITY: 0 UNCOVERED: 4897777
L1D PREFETCHES SAME FILL-ORIGIN LEVEL: 1398272 DIFFERENT FILL-ORIGIN LEVEL: 58941
L1D AVERAGE MISS LATENCY: 55.2556 cycles
L1D AVERAGE MISS LATENCY LOAD: 64.3546 cycles
L1D AVERAGE MISS LATENCY PREFETCH: 158.691 cycles
L1D AVERAGE MSHR OCCUPANCY: 0.317814
L1D MSHR FULL: 1.5707e-08
L1D RQ	ACCESS:   66919219	FORWARD:          0	MERGED:    2447945	TO_CACHE:   63665820
L1D WQ	ACCESS:   57907495	FORWARD:     805454	MERGED:    2025652	TO_CACHE:   55881843
L1D PQ	ACCESS:    6775434	FORWARD:          0	MERGED:     502364	TO_CACHE:    6273070

L1D UNIQUE REGIONS ACCESSED: 0
L1D REGIONS CONFLICTS: 0
L1D Cross Page Prefetch Requests: 0
L1D Same Page Prefetch Requests: 8299581
L1D ROI Sum of L1D PQ occupancy: 83795433
L1D PREFETCHES PUSHED FROM L2C: 0
L1I SPEC fills:          0  NON-SPEC fills:          0
L1I Test counter :          0
L1I Leapfrog:          0
L1I MSHR merge:          0
L1I TOTAL     ACCESS:   38011827  HIT:   38011825  MISS:          2  HIT %:        100  MISS %: 5.26152e-06   MPKI: 1e-05
L1I LOAD      TOTAL       ACCESS:   38011827  HIT:   38011825  MISS:          2  HIT %:        100  MISS %: 5.26152e-06   MPKI: 1e-05
L1I LOAD      NON_SPEC    ACCESS:   38011827  HIT:   38011825  MISS:          2  HIT %:        100  MISS %: 5.26152e-06   MPKI: 1e-05
L1I PREFETCH  REQUESTED:          0  ISSUED:          0  USEFUL:          0  USELESS:          0
L1I USEFUL LOAD PREFETCHES:          0 PREFETCH ISSUED TO LOWER LEVEL:          0  ACCURACY: -nan
L1I TIMELY PREFETCHES:          0 LATE PREFETCHES: 0 DROPPED PREFETCHES: 0
L1I COMMIT LATE PREFETCHES: 0 NORMAL LATE: 0 MISSED OPPORTUNITY: 0 UNCOVERED: 2
L1I PREFETCHES SAME FILL-ORIGIN LEVEL: 0 DIFFERENT FILL-ORIGIN LEVEL: 0
L1I AVERAGE MISS LATENCY: 214 cycles
L1I AVERAGE MISS LATENCY LOAD: 214 cycles
L1I AVERAGE MISS LATENCY PREFETCH: -nan cycles
L1I AVERAGE MSHR OCCUPANCY: 2.63076e-08
L1I MSHR FULL: 0
L1I RQ	ACCESS:   61776649	FORWARD:          0	MERGED:   23764823	TO_CACHE:   38011826

BTB SPEC fills:          0  NON-SPEC fills:          0
BTB Test counter :          0
BTB Leapfrog:          0
BTB MSHR merge:          0
BTB TOTAL     ACCESS:   47317450  HIT:   44887024  MISS:    2430426  HIT %:    94.8636  MISS %:    5.13643   MPKI: 12.1521
BTB BRANCH_DIRECT_JUMP	ACCESS:    5163667  HIT:    5163630  MISS:         37
BTB BRANCH_INDIRECT	ACCESS:          0  HIT:          0  MISS:          0
BTB BRANCH_CONDITIONAL	ACCESS:   31033862  HIT:   31033783  MISS:         79
BTB BRANCH_DIRECT_CALL	ACCESS:    5259751  HIT:    5259733  MISS:         18
BTB BRANCH_INDIRECT_CALL	ACCESS:     300210  HIT:     300202  MISS:          8
BTB BRANCH_RETURN	ACCESS:    5559960  HIT:    3129676  MISS:    2430284
BTB BRANCH_OTHER ACCESS:          0  HIT:          0  MISS:          0

L2C SPEC fills:          0  NON-SPEC fills:    1341824
L2C Test counter :          0
L2C Leapfrog:          0
L2C MSHR merge:       8054
L2C TOTAL     ACCESS:   12159886  HIT:    6273924  MISS:    5885962  HIT %:    51.5953  MISS %:    48.4047   MPKI: 29.4298
L2C LOAD      TOTAL       ACCESS:    4897665  HIT:    2057598  MISS:    2840067  HIT %:    42.0118  MISS %:    57.9882   MPKI: 14.2003
L2C LOAD      NON_SPEC    ACCESS:    2738956  HIT:    1397130  MISS:    1341826  HIT %:    51.0096  MISS %:    48.9904   MPKI: 6.70913
L2C LOAD      SPEC        ACCESS:    2158709  HIT:     660468  MISS:    1498241  HIT %:    30.5955  MISS %:    69.4045   MPKI: 7.4912
L2C RFO       NON_SPEC    ACCESS:     728537  HIT:     444961  MISS:     283576  HIT %:     61.076  MISS %:     38.924   MPKI: 1.41788
L2C PREFETCH  NON_SPEC    ACCESS:    1426346  HIT:     197290  MISS:    1229056  HIT %:    13.8318  MISS %:    86.1682   MPKI: 6.14528
L2C WRITEBACK NON_SPEC    ACCESS:     794886  HIT:     794652  MISS:        234  HIT %:    99.9706  MISS %:  0.0294382   MPKI: 0.00117
L2C CLEAN_EVICTION NON_SPEC    ACCESS:    4036632  HIT:    2562386  MISS:    1474246  HIT %:    63.4783  MISS %:    36.5217   MPKI: 7.37123
L2C COMMIT LOAD NON_SPEC    ACCESS:      66077  HIT:      27072  MISS:      39005  HIT %:    40.9704  MISS %:    59.0296   MPKI: 0.195025
L2C LOAD TRANSLATION NON_SPEC    ACCESS:     209743  HIT:     189965  MISS:      19778  HIT %:    90.5704  MISS %:    9.42964   MPKI: 0.09889
L2C PREFETCH  REQUESTED:          0  ISSUED:          0  USEFUL:     277260  USELESS:     951671
L2C USEFUL LOAD PREFETCHES:     277260 PREFETCH ISSUED TO LOWER LEVEL:    1237110  ACCURACY: 22.4119
L2C TIMELY PREFETCHES:     277260 LATE PREFETCHES: 8054 DROPPED PREFETCHES: 0
L2C COMMIT LATE PREFETCHES: 0 NORMAL LATE: 8054 MISSED OPPORTUNITY: 0 UNCOVERED: 2832013
L2C PREFETCHES SAME FILL-ORIGIN LEVEL: 44201 DIFFERENT FILL-ORIGIN LEVEL: 0
L2C AVERAGE MISS LATENCY: 77.8167 cycles
L2C AVERAGE MISS LATENCY LOAD: 77.8558 cycles
L2C AVERAGE MISS LATENCY PREFETCH: 182.296 cycles
L2C AVERAGE MSHR OCCUPANCY: 1.24036
L2C MSHR FULL: 0
L2C RQ	ACCESS:    5902197	FORWARD:          0	MERGED:          0	TO_CACHE:    5902022
L2C WQ	ACCESS:    4831523	FORWARD:        179	MERGED:          5	TO_CACHE:    4831518
L2C PQ	ACCESS:    1457213	FORWARD:          0	MERGED:          0	TO_CACHE:    1457209

L2C Instructions Evicting Data 2
L2C Translations Evicting Data 19639
L2C Data Evicting Data 2880600
L2C Instructions Evicting Instructions 0
L2C Translations Evicting Instructions 0
L2C Data Evicting Instructions 2
L2C Instructions Evicting Translations 0
L2C Translations Evicting Translations 139
L2C Data Evicting Translations 12859
L2C Dense regions hint from L2: 0
PSCL5 SPEC fills:          0  NON-SPEC fills:          0
PSCL5 Test counter :          0
PSCL5 Leapfrog:          0
PSCL5 MSHR merge:          0
PSCL5 TOTAL     ACCESS:          0  HIT:          0  MISS:          0  HIT %:       -nan  MISS %:       -nan   MPKI: 0
PSCL5 PREFETCH  REQUESTED:          0  ISSUED:          0  USEFUL:          0  USELESS:          0
PSCL5 USEFUL LOAD PREFETCHES:          0 PREFETCH ISSUED TO LOWER LEVEL:          0  ACCURACY: -nan
PSCL5 TIMELY PREFETCHES:          0 LATE PREFETCHES: 0 DROPPED PREFETCHES: 0
PSCL5 COMMIT LATE PREFETCHES: 0 NORMAL LATE: 0 MISSED OPPORTUNITY: 0 UNCOVERED: 0
PSCL5 PREFETCHES SAME FILL-ORIGIN LEVEL: 0 DIFFERENT FILL-ORIGIN LEVEL: 0

PSCL4 SPEC fills:          0  NON-SPEC fills:          0
PSCL4 Test counter :          0
PSCL4 Leapfrog:          0
PSCL4 MSHR merge:          0
PSCL4 TOTAL     ACCESS:          0  HIT:          0  MISS:          0  HIT %:       -nan  MISS %:       -nan   MPKI: 0
PSCL4 PREFETCH  REQUESTED:          0  ISSUED:          0  USEFUL:          0  USELESS:          0
PSCL4 USEFUL LOAD PREFETCHES:          0 PREFETCH ISSUED TO LOWER LEVEL:          0  ACCURACY: -nan
PSCL4 TIMELY PREFETCHES:          0 LATE PREFETCHES: 0 DROPPED PREFETCHES: 0
PSCL4 COMMIT LATE PREFETCHES: 0 NORMAL LATE: 0 MISSED OPPORTUNITY: 0 UNCOVERED: 0
PSCL4 PREFETCHES SAME FILL-ORIGIN LEVEL: 0 DIFFERENT FILL-ORIGIN LEVEL: 0

PSCL3 SPEC fills:          0  NON-SPEC fills:          0
PSCL3 Test counter :          0
PSCL3 Leapfrog:          0
PSCL3 MSHR merge:          0
PSCL3 TOTAL     ACCESS:          0  HIT:          0  MISS:          0  HIT %:       -nan  MISS %:       -nan   MPKI: 0
PSCL3 PREFETCH  REQUESTED:          0  ISSUED:          0  USEFUL:          0  USELESS:          0
PSCL3 USEFUL LOAD PREFETCHES:          0 PREFETCH ISSUED TO LOWER LEVEL:          0  ACCURACY: -nan
PSCL3 TIMELY PREFETCHES:          0 LATE PREFETCHES: 0 DROPPED PREFETCHES: 0
PSCL3 COMMIT LATE PREFETCHES: 0 NORMAL LATE: 0 MISSED OPPORTUNITY: 0 UNCOVERED: 0
PSCL3 PREFETCHES SAME FILL-ORIGIN LEVEL: 0 DIFFERENT FILL-ORIGIN LEVEL: 0

PSCL2 SPEC fills:          0  NON-SPEC fills:          0
PSCL2 Test counter :          0
PSCL2 Leapfrog:          0
PSCL2 MSHR merge:          0
PSCL2 TOTAL     ACCESS:          0  HIT:          0  MISS:          0  HIT %:       -nan  MISS %:       -nan   MPKI: 0
PSCL2 PREFETCH  REQUESTED:          0  ISSUED:          0  USEFUL:          0  USELESS:          0
PSCL2 USEFUL LOAD PREFETCHES:          0 PREFETCH ISSUED TO LOWER LEVEL:          0  ACCURACY: -nan
PSCL2 TIMELY PREFETCHES:          0 LATE PREFETCHES: 0 DROPPED PREFETCHES: 0
PSCL2 COMMIT LATE PREFETCHES: 0 NORMAL LATE: 0 MISSED OPPORTUNITY: 0 UNCOVERED: 0
PSCL2 PREFETCHES SAME FILL-ORIGIN LEVEL: 0 DIFFERENT FILL-ORIGIN LEVEL: 0

LLC SPEC fills:          0  NON-SPEC fills:     296472
LLC Test counter :          0
LLC Leapfrog:          0
LLC MSHR merge:          0
LLC TOTAL     ACCESS:    7570807  HIT:    4921480  MISS:    2649327  HIT %:     65.006  MISS %:     34.994   MPKI: 13.2466
LLC LOAD      TOTAL       ACCESS:    2831994  HIT:    1963809  MISS:     868185  HIT %:    69.3437  MISS %:    30.6563   MPKI: 4.34092
LLC LOAD      NON_SPEC    ACCESS:    1341819  HIT:    1045345  MISS:     296474  HIT %:    77.9051  MISS %:    22.0949   MPKI: 1.48237
LLC LOAD      SPEC        ACCESS:    1490175  HIT:     918464  MISS:     571711  HIT %:    61.6346  MISS %:    38.3654   MPKI: 2.85855
LLC RFO       NON_SPEC    ACCESS:     283559  HIT:     280890  MISS:       2669  HIT %:    99.0587  MISS %:    0.94125   MPKI: 0.013345
LLC PREFETCH  NON_SPEC    ACCESS:    1237110  HIT:      86895  MISS:    1150215  HIT %:    7.02403  MISS %:     92.976   MPKI: 5.75107
LLC WRITEBACK NON_SPEC    ACCESS:     305763  HIT:     296402  MISS:       9361  HIT %:    96.9385  MISS %:    3.06152   MPKI: 0.046805
LLC CLEAN_EVICTION NON_SPEC    ACCESS:    2853603  HIT:    2246902  MISS:     606701  HIT %:    78.7391  MISS %:    21.2609   MPKI: 3.0335
LLC COMMIT LOAD NON_SPEC    ACCESS:      39000  HIT:      32255  MISS:       6745  HIT %:    82.7051  MISS %:    17.2949   MPKI: 0.033725
LLC LOAD TRANSLATION NON_SPEC    ACCESS:      19778  HIT:      14327  MISS:       5451  HIT %:    72.4391  MISS %:    27.5609   MPKI: 0.027255
LLC PREFETCH  REQUESTED:          0  ISSUED:          0  USEFUL:     134583  USELESS:    1016718
LLC USEFUL LOAD PREFETCHES:     134583 PREFETCH ISSUED TO LOWER LEVEL:    1150215  ACCURACY: 11.7007
LLC TIMELY PREFETCHES:     134583 LATE PREFETCHES: 0 DROPPED PREFETCHES: 0
LLC COMMIT LATE PREFETCHES: 0 NORMAL LATE: 0 MISSED OPPORTUNITY: 0 UNCOVERED: 868185
LLC PREFETCHES SAME FILL-ORIGIN LEVEL: 0 DIFFERENT FILL-ORIGIN LEVEL: 0
LLC AVERAGE MISS LATENCY: 127.943 cycles
LLC AVERAGE MISS LATENCY LOAD: 170.729 cycles
LLC AVERAGE MISS LATENCY PREFETCH: 163.616 cycles
LLC AVERAGE MSHR OCCUPANCY: 1.24346
LLC MSHR FULL: 0
LLC RQ	ACCESS:    3174372	FORWARD:          0	MERGED:          0	TO_CACHE:    3174331
LLC WQ	ACCESS:    3159366	FORWARD:         41	MERGED:          0	TO_CACHE:    3159366
LLC PQ	ACCESS:    1237110	FORWARD:          0	MERGED:          0	TO_CACHE:    1237110

LLC Dense regions hint to LLC: 0

RAW hits: 2882696
Loads Generated: 70285606
Loads sent to L1D: 67402909
Stores Generated: 23674352
Stores sent to L1D: 23674381
Major fault: 0 Minor fault: 30918
Allocated PAGES: 30918
Total Load insts: 83343457
Total Non-spec loads: 21432294
Percentage of speculative loads: 74.2844

LeapFrogging counter: 340629
Commit hits: 34233114 miss: 13446837
Commit hit %: 71.7977 miss %: 28.2023
Commits not translated: 0
Loads retired: 5248600
Stores retired: 23674381
Cache fills: 5248600
L1D response latency: 64.3546 cycles
Load retirement latency: 123.848 cycles
OOO test counter: 0
Discarded buffer inserts: 34233114 hits: 19560 hit %: 0.0571377
Filter prediction accuracy: -nan
Speculative prefetch buffer size: 0
CPU 0 L1D PC-based stride prefetcher final stats
Degree: 3

DRAM Statistics
 CHANNEL 0
 RQ ROW_BUFFER_HIT:     183413  ROW_BUFFER_MISS:    1849710
 DBUS_CONGESTED:       1428
 WQ ROW_BUFFER_HIT:     358311  ROW_BUFFER_MISS:    1411249  FULL:          0

 AVG_CONGESTED_CYCLE: 5
 All warmup complete: 2
Channel 0 Bank busy for read cycles: 0
Channel 0 Bank busy for write cycles: 0
Channel 0
Rank 0
0banks busy for read cycles: 462697203
0banks busy for write cycles: 140532
1banks busy for read cycles: 57188234
1banks busy for write cycles: 17586170
2banks busy for read cycles: 28259383
2banks busy for write cycles: 11348497
3banks busy for read cycles: 13066456
3banks busy for write cycles: 12304159
4banks busy for read cycles: 13350529
4banks busy for write cycles: 12369829
5banks busy for read cycles: 7319767
5banks busy for write cycles: 10615939
6banks busy for read cycles: 3851144
6banks busy for write cycles: 8759545
7banks busy for read cycles: 1901086
7banks busy for write cycles: 7674098
8banks busy for read cycles: 939215
8banks busy for write cycles: 8632488

CPU 0 Branch Prediction Accuracy: 92.9349% MPKI: 17.4788 Average ROB Occupancy at Mispredict: 18.3792
Branch types
NOT_BRANCH: 150520483 75.2602%
BRANCH_DIRECT_JUMP: 5163667 2.58183%
BRANCH_INDIRECT: 0 0%
BRANCH_CONDITIONAL: 33195560 16.5978%
BRANCH_DIRECT_CALL: 5259751 2.62988%
BRANCH_INDIRECT_CALL: 300210 0.150105%
BRANCH_RETURN: 5559960 2.77998%
BRANCH_OTHER: 0 0%

DRAM PAGES: 1048576
Allocated PAGES: 30918
