
*** ChampSim Multicore Out-of-Order Simulator ***

Warmup Instructions: 50000000
Simulation Instructions: 200000000
Number of CPUs: 1
LLC sets: 2048
LLC ways: 16
L0D sets: 16
L0D ways: 2
ROB size: 352
LQ size: 128
SQ size: 72
Secure Berti: OFF
Berti: OFF
Berti Fill: OFF
On commit prefetching: OFF
Hit-based filter: OFF
Time-guarding: ON
Free-slotting: ON
Leap-frogging: ON
Train prefetcher on L0D bypass: OFF
No translation penalty for prefetchers: OFF
Prefetch to L0D only: OFF
Prefetch to L1D only: OFF
Clean evictions: ON
Commit loads: ON
Commit write: ON
Fill commit loads to L2C, LLC: ON
DRAM IO FREQUENCY: 6400
ROB SIZE: 352
Off-chip DRAM Size: 4096 MB Channels: 1 Width: 64-bit Data Rate: 6400 MT/s
CPU 0 runs /home/sumon/secure_berti/GhostMinion/../../traces/spec/605.mcf_s-1554B.champsimtrace.xz
.xz
BTB has LRU replacement policy
ITLB has LRU replacement policy
DTLB has LRU replacement policy
STLB has LRU replacement policy
L1I has LRU replacement policy
L0D has LRU replacement policy
CPU 0 L1D IP-based stride prefetcher
L1D has LRU replacement policy
L2C has LRU replacement policy
LLC has LRU replacement policy
Heartbeat CPU 0 instructions: 10000002 cycles: 4350381 heartbeat IPC: 2.29865 cumulative IPC: 2.29865 (Simulation time: 0 hr 1 min 22 sec) 
Heartbeat CPU 0 instructions: 20000000 cycles: 8720354 heartbeat IPC: 2.28834 cumulative IPC: 2.29348 (Simulation time: 0 hr 2 min 39 sec) 
Heartbeat CPU 0 instructions: 30000002 cycles: 13105385 heartbeat IPC: 2.28049 cumulative IPC: 2.28914 (Simulation time: 0 hr 4 min 6 sec) 
Heartbeat CPU 0 instructions: 40000001 cycles: 17476014 heartbeat IPC: 2.288 cumulative IPC: 2.28885 (Simulation time: 0 hr 5 min 15 sec) 
Heartbeat CPU 0 instructions: 50000001 cycles: 21847213 heartbeat IPC: 2.2877 cumulative IPC: 2.28862 (Simulation time: 0 hr 6 min 54 sec) 

Warmup complete CPU 0 instructions: 50000001 cycles: 21847213 (Simulation time: 0 hr 6 min 54 sec) 

Heartbeat CPU 0 instructions: 60000000 cycles: 100140974 heartbeat IPC: 0.127724 cumulative IPC: 0.127724 (Simulation time: 0 hr 10 min 13 sec) 
Heartbeat CPU 0 instructions: 70000000 cycles: 178526145 heartbeat IPC: 0.127575 cumulative IPC: 0.12765 (Simulation time: 0 hr 12 min 23 sec) 
Heartbeat CPU 0 instructions: 80000002 cycles: 258230370 heartbeat IPC: 0.125464 cumulative IPC: 0.126913 (Simulation time: 0 hr 15 min 18 sec) 
Heartbeat CPU 0 instructions: 90000003 cycles: 337201936 heartbeat IPC: 0.126628 cumulative IPC: 0.126841 (Simulation time: 0 hr 19 min 4 sec) 
Heartbeat CPU 0 instructions: 100000001 cycles: 416196528 heartbeat IPC: 0.126591 cumulative IPC: 0.126791 (Simulation time: 0 hr 21 min 34 sec) 
Heartbeat CPU 0 instructions: 110000000 cycles: 496040658 heartbeat IPC: 0.125244 cumulative IPC: 0.126531 (Simulation time: 0 hr 24 min 2 sec) 
Heartbeat CPU 0 instructions: 120000001 cycles: 575304491 heartbeat IPC: 0.126161 cumulative IPC: 0.126478 (Simulation time: 0 hr 26 min 30 sec) 
Heartbeat CPU 0 instructions: 130000000 cycles: 655439613 heartbeat IPC: 0.124789 cumulative IPC: 0.126264 (Simulation time: 0 hr 28 min 36 sec) 
Heartbeat CPU 0 instructions: 140000000 cycles: 736926057 heartbeat IPC: 0.12272 cumulative IPC: 0.12586 (Simulation time: 0 hr 30 min 27 sec) 
Heartbeat CPU 0 instructions: 150000002 cycles: 818404266 heartbeat IPC: 0.122732 cumulative IPC: 0.12554 (Simulation time: 0 hr 32 min 4 sec) 
Heartbeat CPU 0 instructions: 160000000 cycles: 899475168 heartbeat IPC: 0.123349 cumulative IPC: 0.125338 (Simulation time: 0 hr 33 min 36 sec) 
Heartbeat CPU 0 instructions: 170000003 cycles: 981438943 heartbeat IPC: 0.122005 cumulative IPC: 0.125053 (Simulation time: 0 hr 35 min 9 sec) 
Heartbeat CPU 0 instructions: 180000003 cycles: 1064065815 heartbeat IPC: 0.121026 cumulative IPC: 0.124734 (Simulation time: 0 hr 36 min 43 sec) 
Heartbeat CPU 0 instructions: 190000003 cycles: 1145780696 heartbeat IPC: 0.122377 cumulative IPC: 0.124563 (Simulation time: 0 hr 38 min 15 sec) 
Heartbeat CPU 0 instructions: 200000003 cycles: 1229242759 heartbeat IPC: 0.119815 cumulative IPC: 0.124234 (Simulation time: 0 hr 39 min 49 sec) 
Heartbeat CPU 0 instructions: 210000001 cycles: 1311368976 heartbeat IPC: 0.121764 cumulative IPC: 0.124077 (Simulation time: 0 hr 41 min 19 sec) 
Heartbeat CPU 0 instructions: 220000000 cycles: 1393526926 heartbeat IPC: 0.121717 cumulative IPC: 0.123936 (Simulation time: 0 hr 42 min 49 sec) 
Heartbeat CPU 0 instructions: 230000003 cycles: 1477858980 heartbeat IPC: 0.118579 cumulative IPC: 0.123625 (Simulation time: 0 hr 44 min 23 sec) 
Heartbeat CPU 0 instructions: 240000001 cycles: 1560578396 heartbeat IPC: 0.120891 cumulative IPC: 0.123478 (Simulation time: 0 hr 45 min 53 sec) 
Heartbeat CPU 0 instructions: 250000002 cycles: 1644068027 heartbeat IPC: 0.119775 cumulative IPC: 0.123288 (Simulation time: 0 hr 47 min 24 sec) 
Finished CPU 0 instructions: 200000001 cycles: 1622220814 cumulative IPC: 0.123288 (Simulation time: 0 hr 47 min 24 sec) 
 Instruction ID: 250000342

ChampSim completed all CPUs

Region of Interest Statistics

CPU 0 cumulative IPC: 0.123288 instructions: 200000001 cycles: 1622220814
ITLB SPEC fills:          0  NON-SPEC fills:          0
ITLB Test counter :          0
ITLB Leapfrog:          0
ITLB MSHR merge:          0
ITLB TOTAL     ACCESS:   43109553  HIT:   43109553  MISS:          0  HIT %:        100  MISS %:          0   MPKI: 0
ITLB LOAD TRANSLATION NON_SPEC    ACCESS:   43109553  HIT:   43109553  MISS:          0  HIT %:        100  MISS %:          0   MPKI: 0
ITLB PREFETCH  REQUESTED:          0  ISSUED:          0  USEFUL:          0  USELESS:          0
ITLB USEFUL LOAD PREFETCHES:          0 PREFETCH ISSUED TO LOWER LEVEL:          0  ACCURACY: -nan
ITLB TIMELY PREFETCHES:          0 LATE PREFETCHES: 0 DROPPED PREFETCHES: 0
ITLB COMMIT LATE PREFETCHES: 0 NORMAL LATE: 0 MISSED OPPORTUNITY: 0 UNCOVERED: 0
ITLB PREFETCHES SAME FILL-ORIGIN LEVEL: 0 DIFFERENT FILL-ORIGIN LEVEL: 0
ITLB AVERAGE MISS LATENCY: -nan cycles
ITLB AVERAGE MISS LATENCY LOAD: -nan cycles
ITLB AVERAGE MISS LATENCY PREFETCH: -nan cycles
ITLB AVERAGE MSHR OCCUPANCY: 0
ITLB MSHR FULL: 0
ITLB RQ	ACCESS:   52200074	FORWARD:          0	MERGED:    9090522	TO_CACHE:   43109552

DTLB SPEC fills:          0  NON-SPEC fills:          0
DTLB Test counter :          0
DTLB Leapfrog:          0
DTLB MSHR merge:          0
DTLB TOTAL     ACCESS:   67945204  HIT:   67144552  MISS:     800652  HIT %:    98.8216  MISS %:    1.17838   MPKI: 4.00326
DTLB LOAD TRANSLATION NON_SPEC    ACCESS:   67945204  HIT:   67144552  MISS:     800652  HIT %:    98.8216  MISS %:    1.17838   MPKI: 4.00326
DTLB PREFETCH  REQUESTED:          0  ISSUED:          0  USEFUL:          0  USELESS:          0
DTLB USEFUL LOAD PREFETCHES:          0 PREFETCH ISSUED TO LOWER LEVEL:          0  ACCURACY: -nan
DTLB TIMELY PREFETCHES:          0 LATE PREFETCHES: 0 DROPPED PREFETCHES: 0
DTLB COMMIT LATE PREFETCHES: 0 NORMAL LATE: 0 MISSED OPPORTUNITY: 0 UNCOVERED: 0
DTLB PREFETCHES SAME FILL-ORIGIN LEVEL: 0 DIFFERENT FILL-ORIGIN LEVEL: 0
DTLB AVERAGE MISS LATENCY: 13.5463 cycles
DTLB AVERAGE MISS LATENCY LOAD: -nan cycles
DTLB AVERAGE MISS LATENCY PREFETCH: -nan cycles
DTLB AVERAGE MSHR OCCUPANCY: 0.0132339
DTLB MSHR FULL: 0
DTLB RQ	ACCESS:   84204358	FORWARD:          0	MERGED:   16218913	TO_CACHE:   67985445

STLB SPEC fills:          0  NON-SPEC fills:          0
STLB Test counter :          0
STLB Leapfrog:          0
STLB MSHR merge:          0
STLB TOTAL     ACCESS:    9010802  HIT:    8998528  MISS:      12274  HIT %:    99.8638  MISS %:   0.136214   MPKI: 0.06137
STLB LOAD TRANSLATION NON_SPEC    ACCESS:     800652  HIT:     788382  MISS:      12270  HIT %:    98.4675  MISS %:     1.5325   MPKI: 0.06135
STLB TRANSLATION FROM L1D PREFETCHER NON_SPEC    ACCESS:    8210150  HIT:    8210146  MISS:          4  HIT %:        100  MISS %: 4.87202e-05   MPKI: 2e-05
STLB PREFETCH  REQUESTED:          0  ISSUED:          0  USEFUL:          4  USELESS:          0
STLB USEFUL LOAD PREFETCHES:          4 PREFETCH ISSUED TO LOWER LEVEL:          0  ACCURACY: inf
STLB TIMELY PREFETCHES:          4 LATE PREFETCHES: 0 DROPPED PREFETCHES: 0
STLB COMMIT LATE PREFETCHES: 0 NORMAL LATE: 0 MISSED OPPORTUNITY: 0 UNCOVERED: 0
STLB PREFETCHES SAME FILL-ORIGIN LEVEL: 0 DIFFERENT FILL-ORIGIN LEVEL: 0
STLB AVERAGE MISS LATENCY: 296.106 cycles
STLB AVERAGE MISS LATENCY LOAD: -nan cycles
STLB AVERAGE MISS LATENCY PREFETCH: -nan cycles
STLB AVERAGE MSHR OCCUPANCY: 0.00192269
STLB MSHR FULL: 0
STLB RQ	ACCESS:   24687623	FORWARD:          0	MERGED:   15676821	TO_CACHE:    9010802

STLB Hit, L1D data hit: 0
STLB Hit, L2C data hit: 0
STLB Hit, LLC data hit: 0
STLB Hit, LLC data miss: 0
STLB STLB hints to L2: 0
L0D SPEC fills:   41146269  NON-SPEC fills:          0
L0D TimeGuard Request with older TS:    2756441 Restricted eviction:    1180204 read:    3143977
L0D Test counter :          0
L0D Leapfrog:          0
L0D MSHR merge:    5063185
L0D TOTAL     ACCESS:   65622475  HIT:   16599748  MISS:   49022727  HIT %:    25.2958  MISS %:    74.7042   MPKI: 245.114
L0D LOAD      TOTAL       ACCESS:   65622475  HIT:   16599748  MISS:   49022727  HIT %:    25.2958  MISS %:    74.7042   MPKI: 245.114
L0D LOAD      NON_SPEC    ACCESS:    7647428  HIT:     951173  MISS:    6696255  HIT %:    12.4378  MISS %:    87.5622   MPKI: 33.4813
L0D LOAD      SPEC        ACCESS:   57975047  HIT:   15648575  MISS:   42326472  HIT %:    26.9919  MISS %:    73.0081   MPKI: 211.632
L0D PREFETCH  REQUESTED:          0  ISSUED:          0  USEFUL:          0  USELESS:          0
L0D USEFUL LOAD PREFETCHES:          0 PREFETCH ISSUED TO LOWER LEVEL:          0  ACCURACY: -nan
L0D TIMELY PREFETCHES:          0 LATE PREFETCHES: 0 DROPPED PREFETCHES: 0
L0D COMMIT LATE PREFETCHES: 0 NORMAL LATE: 0 MISSED OPPORTUNITY: 0 UNCOVERED: 49022727
L0D PREFETCHES SAME FILL-ORIGIN LEVEL: 0 DIFFERENT FILL-ORIGIN LEVEL: 0
L0D AVERAGE MISS LATENCY: 123.841 cycles
L0D AVERAGE MISS LATENCY LOAD: 123.841 cycles
L0D AVERAGE MISS LATENCY PREFETCH: -nan cycles
L0D AVERAGE MSHR OCCUPANCY: 5.67751
L0D MSHR FULL: 0.478802
L0D RQ	ACCESS:   83187724	FORWARD:          0	MERGED:   12502068	TO_CACHE:   70685656
L0D WQ	ACCESS:   13518702	FORWARD:          0	MERGED:          0	TO_CACHE:   13518702

L1D SPEC fills:          0  NON-SPEC fills:    1980787
L1D Test counter :          0
L1D Leapfrog:          0
L1D MSHR merge:     979737
L1D TOTAL     ACCESS:  136755874  HIT:   80004429  MISS:   56751445  HIT %:    58.5016  MISS %:    41.4984   MPKI: 283.757
L1D LOAD      TOTAL       ACCESS:   49005777  HIT:   23929667  MISS:   25076110  HIT %:    48.8303  MISS %:    51.1697   MPKI: 125.381
L1D LOAD      NON_SPEC    ACCESS:    6684698  HIT:    4703911  MISS:    1980787  HIT %:    70.3683  MISS %:    29.6317   MPKI: 9.90393
L1D LOAD      SPEC        ACCESS:   42321079  HIT:   19225756  MISS:   23095323  HIT %:    45.4283  MISS %:    54.5717   MPKI: 115.477
L1D RFO       NON_SPEC    ACCESS:   10046480  HIT:    9641882  MISS:     404598  HIT %:    95.9727  MISS %:    4.02726   MPKI: 2.02299
L1D PREFETCH  NON_SPEC    ACCESS:   13708460  HIT:    4688397  MISS:    9020063  HIT %:    34.2008  MISS %:    65.7992   MPKI: 45.1003
L1D COMMIT LOAD NON_SPEC    ACCESS:   25532862  HIT:   24249611  MISS:    1283251  HIT %:    94.9741  MISS %:    5.02588   MPKI: 6.41625
L1D COMMIT WRITE NON_SPEC    ACCESS:   38462295  HIT:   17494872  MISS:   20967423  HIT %:    45.4858  MISS %:    54.5142   MPKI: 104.837
L1D PREFETCH  REQUESTED:   23960866  ISSUED:   23960866  USEFUL:    6869437  USELESS:    2150712
L1D USEFUL LOAD PREFETCHES:    6869437 PREFETCH ISSUED TO LOWER LEVEL:   15977844  ACCURACY: 42.9935
L1D TIMELY PREFETCHES:    6869437 LATE PREFETCHES: 964330 DROPPED PREFETCHES: 0
L1D COMMIT LATE PREFETCHES: 0 NORMAL LATE: 964330 MISSED OPPORTUNITY: 0 UNCOVERED: 24111780
L1D PREFETCHES SAME FILL-ORIGIN LEVEL: 9984488 DIFFERENT FILL-ORIGIN LEVEL: 5993356
L1D AVERAGE MISS LATENCY: 143.204 cycles
L1D AVERAGE MISS LATENCY LOAD: 219.133 cycles
L1D AVERAGE MISS LATENCY PREFETCH: 247.048 cycles
L1D AVERAGE MSHR OCCUPANCY: 4.60528
L1D MSHR FULL: 0.00191598
L1D RQ	ACCESS:   85705753	FORWARD:          0	MERGED:    8523996	TO_CACHE:   74667017
L1D WQ	ACCESS:   52227670	FORWARD:    2514740	MERGED:    2624247	TO_CACHE:   49603423
L1D PQ	ACCESS:   23960866	FORWARD:          0	MERGED:      73895	TO_CACHE:   23886971

L1D UNIQUE REGIONS ACCESSED: 0
L1D REGIONS CONFLICTS: 0
L1D Cross Page Prefetch Requests: 0
L1D Same Page Prefetch Requests: 30161256
L1D ROI Sum of L1D PQ occupancy: 322441437
L1D PREFETCHES PUSHED FROM L2C: 0
L1I SPEC fills:          0  NON-SPEC fills:          0
L1I Test counter :          0
L1I Leapfrog:          0
L1I MSHR merge:          0
L1I TOTAL     ACCESS:   52200073  HIT:   52200073  MISS:          0  HIT %:        100  MISS %:          0   MPKI: 0
L1I LOAD      TOTAL       ACCESS:   52200073  HIT:   52200073  MISS:          0  HIT %:        100  MISS %:          0   MPKI: 0
L1I LOAD      NON_SPEC    ACCESS:   52200073  HIT:   52200073  MISS:          0  HIT %:        100  MISS %:          0   MPKI: 0
L1I PREFETCH  REQUESTED:          0  ISSUED:          0  USEFUL:          0  USELESS:          0
L1I USEFUL LOAD PREFETCHES:          0 PREFETCH ISSUED TO LOWER LEVEL:          0  ACCURACY: -nan
L1I TIMELY PREFETCHES:          0 LATE PREFETCHES: 0 DROPPED PREFETCHES: 0
L1I COMMIT LATE PREFETCHES: 0 NORMAL LATE: 0 MISSED OPPORTUNITY: 0 UNCOVERED: 0
L1I PREFETCHES SAME FILL-ORIGIN LEVEL: 0 DIFFERENT FILL-ORIGIN LEVEL: 0
L1I AVERAGE MISS LATENCY: -nan cycles
L1I AVERAGE MISS LATENCY LOAD: -nan cycles
L1I AVERAGE MISS LATENCY PREFETCH: -nan cycles
L1I AVERAGE MSHR OCCUPANCY: 0
L1I MSHR FULL: 0
L1I RQ	ACCESS:   69833888	FORWARD:          0	MERGED:   17633814	TO_CACHE:   52200074

BTB SPEC fills:          0  NON-SPEC fills:          0
BTB Test counter :          0
BTB Leapfrog:          0
BTB MSHR merge:          0
BTB TOTAL     ACCESS:   35943470  HIT:   35943438  MISS:         32  HIT %:    99.9999  MISS %: 8.90287e-05   MPKI: 0.00016
BTB BRANCH_DIRECT_JUMP	ACCESS:    8413977  HIT:    8413971  MISS:          6
BTB BRANCH_INDIRECT	ACCESS:          0  HIT:          0  MISS:          0
BTB BRANCH_CONDITIONAL	ACCESS:   27526337  HIT:   27526315  MISS:         22
BTB BRANCH_DIRECT_CALL	ACCESS:       1578  HIT:       1576  MISS:          2
BTB BRANCH_INDIRECT_CALL	ACCESS:          0  HIT:          0  MISS:          0
BTB BRANCH_RETURN	ACCESS:       1578  HIT:       1576  MISS:          2
BTB BRANCH_OTHER ACCESS:          0  HIT:          0  MISS:          0

L2C SPEC fills:          0  NON-SPEC fills:    1536454
L2C Test counter :          0
L2C Leapfrog:          0
L2C MSHR merge:     298286
L2C TOTAL     ACCESS:   68126956  HIT:   13211059  MISS:   54915897  HIT %:    19.3918  MISS %:    80.6082   MPKI: 274.579
L2C LOAD      TOTAL       ACCESS:   24113322  HIT:    2415316  MISS:   21698006  HIT %:    10.0165  MISS %:    89.9835   MPKI: 108.49
L2C LOAD      NON_SPEC    ACCESS:    1969148  HIT:     432694  MISS:    1536454  HIT %:    21.9737  MISS %:    78.0263   MPKI: 7.68227
L2C LOAD      SPEC        ACCESS:   22144174  HIT:    1982622  MISS:   20161552  HIT %:    8.95324  MISS %:    91.0468   MPKI: 100.808
L2C RFO       NON_SPEC    ACCESS:     404502  HIT:        672  MISS:     403830  HIT %:    0.16613  MISS %:    99.8339   MPKI: 2.01915
L2C PREFETCH  NON_SPEC    ACCESS:   14990334  HIT:    1317960  MISS:   13672374  HIT %:    8.79207  MISS %:    91.2079   MPKI: 68.3619
L2C WRITEBACK NON_SPEC    ACCESS:     453632  HIT:     452998  MISS:        634  HIT %:    99.8602  MISS %:   0.139761   MPKI: 0.00317
L2C CLEAN_EVICTION NON_SPEC    ACCESS:   26822114  HIT:    8759539  MISS:   18062575  HIT %:    32.6579  MISS %:    67.3421   MPKI: 90.3129
L2C COMMIT LOAD NON_SPEC    ACCESS:    1281707  HIT:     208276  MISS:    1073431  HIT %:    16.2499  MISS %:    83.7501   MPKI: 5.36715
L2C LOAD TRANSLATION NON_SPEC    ACCESS:      61325  HIT:      56290  MISS:       5035  HIT %:    91.7896  MISS %:    8.21035   MPKI: 0.025175
L2C TRANSLATION FROM L1D PREFETCHER NON_SPEC    ACCESS:         20  HIT:          8  MISS:         12  HIT %:         40  MISS %:         60   MPKI: 6e-05
L2C PREFETCH  REQUESTED:          0  ISSUED:          0  USEFUL:    2364452  USELESS:   11309087
L2C USEFUL LOAD PREFETCHES:    2364452 PREFETCH ISSUED TO LOWER LEVEL:   13970954  ACCURACY: 16.9241
L2C TIMELY PREFETCHES:    2364452 LATE PREFETCHES: 298579 DROPPED PREFETCHES: 0
L2C COMMIT LATE PREFETCHES: 0 NORMAL LATE: 298579 MISSED OPPORTUNITY: 0 UNCOVERED: 21399427
L2C PREFETCHES SAME FILL-ORIGIN LEVEL: 5368998 DIFFERENT FILL-ORIGIN LEVEL: 0
L2C AVERAGE MISS LATENCY: 173.595 cycles
L2C AVERAGE MISS LATENCY LOAD: 233.959 cycles
L2C AVERAGE MISS LATENCY PREFETCH: 298.2 cycles
L2C AVERAGE MSHR OCCUPANCY: 6.3417
L2C MSHR FULL: 0
L2C RQ	ACCESS:   25860879	FORWARD:          0	MERGED:          0	TO_CACHE:   25860876
L2C WQ	ACCESS:   27275753	FORWARD:          3	MERGED:          4	TO_CACHE:   27275749
L2C PQ	ACCESS:   15977844	FORWARD:          0	MERGED:         12	TO_CACHE:   15977832

L2C Instructions Evicting Data 0
L2C Translations Evicting Data 5047
L2C Data Evicting Data 16683169
L2C Instructions Evicting Instructions 0
L2C Translations Evicting Instructions 0
L2C Data Evicting Instructions 0
L2C Instructions Evicting Translations 0
L2C Translations Evicting Translations 0
L2C Data Evicting Translations 2920
L2C Dense regions hint from L2: 0
PSCL5 SPEC fills:          0  NON-SPEC fills:          0
PSCL5 Test counter :          0
PSCL5 Leapfrog:          0
PSCL5 MSHR merge:          0
PSCL5 TOTAL     ACCESS:          0  HIT:          0  MISS:          0  HIT %:       -nan  MISS %:       -nan   MPKI: 0
PSCL5 PREFETCH  REQUESTED:          0  ISSUED:          0  USEFUL:          0  USELESS:          0
PSCL5 USEFUL LOAD PREFETCHES:          0 PREFETCH ISSUED TO LOWER LEVEL:          0  ACCURACY: -nan
PSCL5 TIMELY PREFETCHES:          0 LATE PREFETCHES: 0 DROPPED PREFETCHES: 0
PSCL5 COMMIT LATE PREFETCHES: 0 NORMAL LATE: 0 MISSED OPPORTUNITY: 0 UNCOVERED: 0
PSCL5 PREFETCHES SAME FILL-ORIGIN LEVEL: 0 DIFFERENT FILL-ORIGIN LEVEL: 0

PSCL4 SPEC fills:          0  NON-SPEC fills:          0
PSCL4 Test counter :          0
PSCL4 Leapfrog:          0
PSCL4 MSHR merge:          0
PSCL4 TOTAL     ACCESS:          0  HIT:          0  MISS:          0  HIT %:       -nan  MISS %:       -nan   MPKI: 0
PSCL4 PREFETCH  REQUESTED:          0  ISSUED:          0  USEFUL:          0  USELESS:          0
PSCL4 USEFUL LOAD PREFETCHES:          0 PREFETCH ISSUED TO LOWER LEVEL:          0  ACCURACY: -nan
PSCL4 TIMELY PREFETCHES:          0 LATE PREFETCHES: 0 DROPPED PREFETCHES: 0
PSCL4 COMMIT LATE PREFETCHES: 0 NORMAL LATE: 0 MISSED OPPORTUNITY: 0 UNCOVERED: 0
PSCL4 PREFETCHES SAME FILL-ORIGIN LEVEL: 0 DIFFERENT FILL-ORIGIN LEVEL: 0

PSCL3 SPEC fills:          0  NON-SPEC fills:          0
PSCL3 Test counter :          0
PSCL3 Leapfrog:          0
PSCL3 MSHR merge:          0
PSCL3 TOTAL     ACCESS:          0  HIT:          0  MISS:          0  HIT %:       -nan  MISS %:       -nan   MPKI: 0
PSCL3 PREFETCH  REQUESTED:          0  ISSUED:          0  USEFUL:          0  USELESS:          0
PSCL3 USEFUL LOAD PREFETCHES:          0 PREFETCH ISSUED TO LOWER LEVEL:          0  ACCURACY: -nan
PSCL3 TIMELY PREFETCHES:          0 LATE PREFETCHES: 0 DROPPED PREFETCHES: 0
PSCL3 COMMIT LATE PREFETCHES: 0 NORMAL LATE: 0 MISSED OPPORTUNITY: 0 UNCOVERED: 0
PSCL3 PREFETCHES SAME FILL-ORIGIN LEVEL: 0 DIFFERENT FILL-ORIGIN LEVEL: 0

PSCL2 SPEC fills:          0  NON-SPEC fills:          0
PSCL2 Test counter :          0
PSCL2 Leapfrog:          0
PSCL2 MSHR merge:          0
PSCL2 TOTAL     ACCESS:          0  HIT:          0  MISS:          0  HIT %:       -nan  MISS %:       -nan   MPKI: 0
PSCL2 PREFETCH  REQUESTED:          0  ISSUED:          0  USEFUL:          0  USELESS:          0
PSCL2 USEFUL LOAD PREFETCHES:          0 PREFETCH ISSUED TO LOWER LEVEL:          0  ACCURACY: -nan
PSCL2 TIMELY PREFETCHES:          0 LATE PREFETCHES: 0 DROPPED PREFETCHES: 0
PSCL2 COMMIT LATE PREFETCHES: 0 NORMAL LATE: 0 MISSED OPPORTUNITY: 0 UNCOVERED: 0
PSCL2 PREFETCHES SAME FILL-ORIGIN LEVEL: 0 DIFFERENT FILL-ORIGIN LEVEL: 0

LLC SPEC fills:          0  NON-SPEC fills:    1320838
LLC Test counter :          0
LLC Leapfrog:          0
LLC MSHR merge:          0
LLC TOTAL     ACCESS:   64125374  HIT:   15686461  MISS:   48438913  HIT %:    24.4622  MISS %:    75.5378   MPKI: 242.195
LLC LOAD      TOTAL       ACCESS:   21399720  HIT:    4046755  MISS:   17352965  HIT %:    18.9103  MISS %:    81.0897   MPKI: 86.7648
LLC LOAD      NON_SPEC    ACCESS:    1535170  HIT:     214332  MISS:    1320838  HIT %:    13.9615  MISS %:    86.0385   MPKI: 6.60419
LLC LOAD      SPEC        ACCESS:   19864550  HIT:    3832423  MISS:   16032127  HIT %:    19.2928  MISS %:    80.7072   MPKI: 80.1606
LLC RFO       NON_SPEC    ACCESS:     403827  HIT:        107  MISS:     403720  HIT %:  0.0264965  MISS %:    99.9735   MPKI: 2.0186
LLC PREFETCH  NON_SPEC    ACCESS:   13970954  HIT:    1580696  MISS:   12390258  HIT %:    11.3142  MISS %:    88.6858   MPKI: 61.9513
LLC WRITEBACK NON_SPEC    ACCESS:     452963  HIT:     452411  MISS:        552  HIT %:    99.8781  MISS %:   0.121864   MPKI: 0.00276
LLC CLEAN_EVICTION NON_SPEC    ACCESS:   26819722  HIT:    9369587  MISS:   17450135  HIT %:    34.9354  MISS %:    65.0646   MPKI: 87.2507
LLC COMMIT LOAD NON_SPEC    ACCESS:    1073141  HIT:     236518  MISS:     836623  HIT %:    22.0398  MISS %:    77.9602   MPKI: 4.18311
LLC LOAD TRANSLATION NON_SPEC    ACCESS:       5035  HIT:        386  MISS:       4649  HIT %:    7.66634  MISS %:    92.3337   MPKI: 0.023245
LLC TRANSLATION FROM L1D PREFETCHER NON_SPEC    ACCESS:         12  HIT:          1  MISS:         11  HIT %:    8.33333  MISS %:    91.6667   MPKI: 5.5e-05
LLC PREFETCH  REQUESTED:          0  ISSUED:          0  USEFUL:     134156  USELESS:   12257846
LLC USEFUL LOAD PREFETCHES:     134156 PREFETCH ISSUED TO LOWER LEVEL:   12390258  ACCURACY: 1.08275
LLC TIMELY PREFETCHES:     134156 LATE PREFETCHES: 0 DROPPED PREFETCHES: 0
LLC COMMIT LATE PREFETCHES: 0 NORMAL LATE: 0 MISSED OPPORTUNITY: 0 UNCOVERED: 17352965
LLC PREFETCHES SAME FILL-ORIGIN LEVEL: 0 DIFFERENT FILL-ORIGIN LEVEL: 0
LLC AVERAGE MISS LATENCY: 179.246 cycles
LLC AVERAGE MISS LATENCY LOAD: 262.235 cycles
LLC AVERAGE MISS LATENCY PREFETCH: 306.445 cycles
LLC AVERAGE MSHR OCCUPANCY: 5.23012
LLC MSHR FULL: 0
LLC RQ	ACCESS:   22881734	FORWARD:          0	MERGED:          0	TO_CACHE:   22881734
LLC WQ	ACCESS:   27272685	FORWARD:          0	MERGED:          0	TO_CACHE:   27272685
LLC PQ	ACCESS:   13970954	FORWARD:          0	MERGED:          0	TO_CACHE:   13970954

LLC Dense regions hint to LLC: 0

RAW hits: 8345231
Loads Generated: 91532961
Loads sent to L1D: 83187724
Stores Generated: 13518699
Stores sent to L1D: 13518702
Major fault: 0 Minor fault: 17320
Allocated PAGES: 17320
Total Load insts: 103485416
Total Non-spec loads: 8593173
Percentage of speculative loads: 91.6963

LeapFrogging counter: 44506781
Commit hits: 38708968 miss: 36683028
Commit hit %: 51.3436 miss %: 48.6564
Commits not translated: 0
Loads retired: 25076102
Stores retired: 13518702
Cache fills: 25076110
L1D response latency: 219.133 cycles
Load retirement latency: 551.658 cycles
OOO test counter: 0
Discarded buffer inserts: 38708968 hits: 358771 hit %: 0.926842
Filter prediction accuracy: -nan
Speculative prefetch buffer size: 0
CPU 0 L1D PC-based stride prefetcher final stats
Degree: 3

DRAM Statistics
 CHANNEL 0
 RQ ROW_BUFFER_HIT:   12414943  ROW_BUFFER_MISS:   18563419
 DBUS_CONGESTED:       9706
 WQ ROW_BUFFER_HIT:    6047394  ROW_BUFFER_MISS:   19481304  FULL:     584968

 AVG_CONGESTED_CYCLE: 5
 All warmup complete: 2
Channel 0 Bank busy for read cycles: 0
Channel 0 Bank busy for write cycles: 0
Channel 0
Rank 0
0banks busy for read cycles: 110131417
0banks busy for write cycles: 119983
1banks busy for read cycles: 144369835
1banks busy for write cycles: 17268419
2banks busy for read cycles: 125574171
2banks busy for write cycles: 12926012
3banks busy for read cycles: 109306093
3banks busy for write cycles: 11750005
4banks busy for read cycles: 105959590
4banks busy for write cycles: 11763575
5banks busy for read cycles: 101162890
5banks busy for write cycles: 12756348
6banks busy for read cycles: 98092017
6banks busy for write cycles: 18314610
7banks busy for read cycles: 96100546
7banks busy for write cycles: 82415667
8banks busy for read cycles: 85845026
8banks busy for write cycles: 478364611

CPU 0 Branch Prediction Accuracy: 98.8241% MPKI: 2.1554 Average ROB Occupancy at Mispredict: 75.4076
Branch types
NOT_BRANCH: 163339812 81.6699%
BRANCH_DIRECT_JUMP: 8413977 4.20699%
BRANCH_INDIRECT: 0 0%
BRANCH_CONDITIONAL: 28243014 14.1215%
BRANCH_DIRECT_CALL: 1578 0.000789%
BRANCH_INDIRECT_CALL: 0 0%
BRANCH_RETURN: 1578 0.000789%
BRANCH_OTHER: 0 0%

DRAM PAGES: 1048576
Allocated PAGES: 17320
