
*** ChampSim Multicore Out-of-Order Simulator ***

Warmup Instructions: 50000000
Simulation Instructions: 200000000
Number of CPUs: 1
LLC sets: 2048
LLC ways: 16
L0D sets: 16
L0D ways: 2
ROB size: 352
LQ size: 128
SQ size: 72
Secure Berti: OFF
Berti: OFF
Berti Fill: OFF
On commit prefetching: OFF
Hit-based filter: OFF
Time-guarding: ON
Free-slotting: ON
Leap-frogging: ON
Train prefetcher on L0D bypass: OFF
No translation penalty for prefetchers: OFF
Prefetch to L0D only: OFF
Prefetch to L1D only: OFF
Clean evictions: ON
Commit loads: ON
Commit write: ON
Fill commit loads to L2C, LLC: ON
DRAM IO FREQUENCY: 6400
ROB SIZE: 352
Off-chip DRAM Size: 4096 MB Channels: 1 Width: 64-bit Data Rate: 6400 MT/s
CPU 0 runs /home/sumon/secure_berti/GhostMinion/../../traces/spec/605.mcf_s-1536B.champsimtrace.xz
.xz
BTB has LRU replacement policy
ITLB has LRU replacement policy
DTLB has LRU replacement policy
STLB has LRU replacement policy
L1I has LRU replacement policy
L0D has LRU replacement policy
CPU 0 L1D IP-based stride prefetcher
L1D has LRU replacement policy
L2C has LRU replacement policy
LLC has LRU replacement policy
Heartbeat CPU 0 instructions: 10000003 cycles: 4479710 heartbeat IPC: 2.23229 cumulative IPC: 2.23229 (Simulation time: 0 hr 0 min 38 sec) 
Heartbeat CPU 0 instructions: 20000003 cycles: 8928843 heartbeat IPC: 2.24763 cumulative IPC: 2.23993 (Simulation time: 0 hr 1 min 27 sec) 
Heartbeat CPU 0 instructions: 30000001 cycles: 13419517 heartbeat IPC: 2.22684 cumulative IPC: 2.23555 (Simulation time: 0 hr 2 min 33 sec) 
Heartbeat CPU 0 instructions: 40000002 cycles: 17941172 heartbeat IPC: 2.21158 cumulative IPC: 2.22951 (Simulation time: 0 hr 3 min 24 sec) 
Heartbeat CPU 0 instructions: 50000003 cycles: 22487581 heartbeat IPC: 2.19954 cumulative IPC: 2.22345 (Simulation time: 0 hr 4 min 7 sec) 

Warmup complete CPU 0 instructions: 50000003 cycles: 22487581 (Simulation time: 0 hr 4 min 7 sec) 

Heartbeat CPU 0 instructions: 60000003 cycles: 72682497 heartbeat IPC: 0.199223 cumulative IPC: 0.199223 (Simulation time: 0 hr 5 min 47 sec) 
Heartbeat CPU 0 instructions: 70000003 cycles: 123012413 heartbeat IPC: 0.198689 cumulative IPC: 0.198956 (Simulation time: 0 hr 7 min 3 sec) 
Heartbeat CPU 0 instructions: 80000001 cycles: 173226292 heartbeat IPC: 0.199148 cumulative IPC: 0.19902 (Simulation time: 0 hr 8 min 19 sec) 
Heartbeat CPU 0 instructions: 90000000 cycles: 223853734 heartbeat IPC: 0.197521 cumulative IPC: 0.198643 (Simulation time: 0 hr 9 min 35 sec) 
Heartbeat CPU 0 instructions: 100000002 cycles: 274307529 heartbeat IPC: 0.198201 cumulative IPC: 0.198555 (Simulation time: 0 hr 10 min 49 sec) 
Heartbeat CPU 0 instructions: 110000000 cycles: 324891858 heartbeat IPC: 0.19769 cumulative IPC: 0.19841 (Simulation time: 0 hr 12 min 4 sec) 
Heartbeat CPU 0 instructions: 120000000 cycles: 375831866 heartbeat IPC: 0.196309 cumulative IPC: 0.198107 (Simulation time: 0 hr 13 min 19 sec) 
Heartbeat CPU 0 instructions: 130000003 cycles: 426833698 heartbeat IPC: 0.196071 cumulative IPC: 0.19785 (Simulation time: 0 hr 14 min 36 sec) 
Heartbeat CPU 0 instructions: 140000003 cycles: 478029843 heartbeat IPC: 0.195327 cumulative IPC: 0.197567 (Simulation time: 0 hr 15 min 55 sec) 
Heartbeat CPU 0 instructions: 150000001 cycles: 528960124 heartbeat IPC: 0.196347 cumulative IPC: 0.197444 (Simulation time: 0 hr 17 min 13 sec) 
Heartbeat CPU 0 instructions: 160000000 cycles: 579706389 heartbeat IPC: 0.197059 cumulative IPC: 0.197409 (Simulation time: 0 hr 18 min 29 sec) 
Heartbeat CPU 0 instructions: 170000002 cycles: 630257164 heartbeat IPC: 0.197821 cumulative IPC: 0.197443 (Simulation time: 0 hr 19 min 44 sec) 
Heartbeat CPU 0 instructions: 180000001 cycles: 680177320 heartbeat IPC: 0.20032 cumulative IPC: 0.197662 (Simulation time: 0 hr 20 min 59 sec) 
Heartbeat CPU 0 instructions: 190000000 cycles: 730101700 heartbeat IPC: 0.200303 cumulative IPC: 0.197848 (Simulation time: 0 hr 22 min 13 sec) 
Heartbeat CPU 0 instructions: 200000003 cycles: 779834256 heartbeat IPC: 0.201076 cumulative IPC: 0.19806 (Simulation time: 0 hr 23 min 27 sec) 
Heartbeat CPU 0 instructions: 210000000 cycles: 829126501 heartbeat IPC: 0.202872 cumulative IPC: 0.198354 (Simulation time: 0 hr 24 min 38 sec) 
Heartbeat CPU 0 instructions: 220000000 cycles: 878235313 heartbeat IPC: 0.203629 cumulative IPC: 0.198657 (Simulation time: 0 hr 25 min 47 sec) 
Heartbeat CPU 0 instructions: 230000000 cycles: 927516215 heartbeat IPC: 0.202918 cumulative IPC: 0.198889 (Simulation time: 0 hr 26 min 52 sec) 
Heartbeat CPU 0 instructions: 240000002 cycles: 976505001 heartbeat IPC: 0.204128 cumulative IPC: 0.199158 (Simulation time: 0 hr 27 min 58 sec) 
Heartbeat CPU 0 instructions: 250000001 cycles: 1025447654 heartbeat IPC: 0.204321 cumulative IPC: 0.19941 (Simulation time: 0 hr 29 min 2 sec) 
Finished CPU 0 instructions: 200000002 cycles: 1002960074 cumulative IPC: 0.19941 (Simulation time: 0 hr 29 min 2 sec) 
 Instruction ID: 250000381

ChampSim completed all CPUs

Region of Interest Statistics

CPU 0 cumulative IPC: 0.19941 instructions: 200000002 cycles: 1002960074
ITLB SPEC fills:          0  NON-SPEC fills:          0
ITLB Test counter :          0
ITLB Leapfrog:          0
ITLB MSHR merge:          0
ITLB TOTAL     ACCESS:   37755323  HIT:   37755323  MISS:          0  HIT %:        100  MISS %:          0   MPKI: 0
ITLB LOAD TRANSLATION NON_SPEC    ACCESS:   37755323  HIT:   37755323  MISS:          0  HIT %:        100  MISS %:          0   MPKI: 0
ITLB PREFETCH  REQUESTED:          0  ISSUED:          0  USEFUL:          0  USELESS:          0
ITLB USEFUL LOAD PREFETCHES:          0 PREFETCH ISSUED TO LOWER LEVEL:          0  ACCURACY: -nan
ITLB TIMELY PREFETCHES:          0 LATE PREFETCHES: 0 DROPPED PREFETCHES: 0
ITLB COMMIT LATE PREFETCHES: 0 NORMAL LATE: 0 MISSED OPPORTUNITY: 0 UNCOVERED: 0
ITLB PREFETCHES SAME FILL-ORIGIN LEVEL: 0 DIFFERENT FILL-ORIGIN LEVEL: 0
ITLB AVERAGE MISS LATENCY: -nan cycles
ITLB AVERAGE MISS LATENCY LOAD: -nan cycles
ITLB AVERAGE MISS LATENCY PREFETCH: -nan cycles
ITLB AVERAGE MSHR OCCUPANCY: 0
ITLB MSHR FULL: 0
ITLB RQ	ACCESS:   39233906	FORWARD:          0	MERGED:    1478583	TO_CACHE:   37755323

DTLB SPEC fills:          0  NON-SPEC fills:          0
DTLB Test counter :          0
DTLB Leapfrog:          0
DTLB MSHR merge:          0
DTLB TOTAL     ACCESS:   33892628  HIT:   29018287  MISS:    4874341  HIT %:    85.6183  MISS %:    14.3817   MPKI: 24.3717
DTLB LOAD TRANSLATION NON_SPEC    ACCESS:   33892628  HIT:   29018287  MISS:    4874341  HIT %:    85.6183  MISS %:    14.3817   MPKI: 24.3717
DTLB PREFETCH  REQUESTED:          0  ISSUED:          0  USEFUL:          0  USELESS:          0
DTLB USEFUL LOAD PREFETCHES:          0 PREFETCH ISSUED TO LOWER LEVEL:          0  ACCURACY: -nan
DTLB TIMELY PREFETCHES:          0 LATE PREFETCHES: 0 DROPPED PREFETCHES: 0
DTLB COMMIT LATE PREFETCHES: 0 NORMAL LATE: 0 MISSED OPPORTUNITY: 0 UNCOVERED: 0
DTLB PREFETCHES SAME FILL-ORIGIN LEVEL: 0 DIFFERENT FILL-ORIGIN LEVEL: 0
DTLB AVERAGE MISS LATENCY: 125.769 cycles
DTLB AVERAGE MISS LATENCY LOAD: -nan cycles
DTLB AVERAGE MISS LATENCY PREFETCH: -nan cycles
DTLB AVERAGE MSHR OCCUPANCY: 0.504603
DTLB MSHR FULL: 0
DTLB RQ	ACCESS:   38885047	FORWARD:          0	MERGED:    4939309	TO_CACHE:   33945738

STLB SPEC fills:          0  NON-SPEC fills:          0
STLB Test counter :          0
STLB Leapfrog:          0
STLB MSHR merge:          0
STLB TOTAL     ACCESS:    5160575  HIT:     516077  MISS:    4644498  HIT %:    10.0004  MISS %:    89.9996   MPKI: 23.2225
STLB LOAD TRANSLATION NON_SPEC    ACCESS:    4874341  HIT:     230290  MISS:    4644051  HIT %:    4.72454  MISS %:    95.2755   MPKI: 23.2203
STLB TRANSLATION FROM L1D PREFETCHER NON_SPEC    ACCESS:     286234  HIT:     285787  MISS:        447  HIT %:    99.8438  MISS %:   0.156166   MPKI: 0.002235
STLB PREFETCH  REQUESTED:          0  ISSUED:          0  USEFUL:          4  USELESS:        443
STLB USEFUL LOAD PREFETCHES:          4 PREFETCH ISSUED TO LOWER LEVEL:          0  ACCURACY: inf
STLB TIMELY PREFETCHES:          4 LATE PREFETCHES: 0 DROPPED PREFETCHES: 0
STLB COMMIT LATE PREFETCHES: 0 NORMAL LATE: 0 MISSED OPPORTUNITY: 0 UNCOVERED: 0
STLB PREFETCHES SAME FILL-ORIGIN LEVEL: 0 DIFFERENT FILL-ORIGIN LEVEL: 0
STLB AVERAGE MISS LATENCY: 122.532 cycles
STLB AVERAGE MISS LATENCY LOAD: -nan cycles
STLB AVERAGE MISS LATENCY PREFETCH: -nan cycles
STLB AVERAGE MSHR OCCUPANCY: 0.490821
STLB MSHR FULL: 0
STLB RQ	ACCESS:    5681952	FORWARD:          0	MERGED:     521378	TO_CACHE:    5160574

STLB Hit, L1D data hit: 0
STLB Hit, L2C data hit: 0
STLB Hit, LLC data hit: 0
STLB Hit, LLC data miss: 0
STLB STLB hints to L2: 0
L0D SPEC fills:   19770217  NON-SPEC fills:          0
L0D TimeGuard Request with older TS:     646425 Restricted eviction:       9625 read:    2467343
L0D Test counter :          0
L0D Leapfrog:          0
L0D MSHR merge:     928817
L0D TOTAL     ACCESS:   29087819  HIT:    2041150  MISS:   27046669  HIT %:     7.0172  MISS %:    92.9828   MPKI: 135.233
L0D LOAD      TOTAL       ACCESS:   29087819  HIT:    2041150  MISS:   27046669  HIT %:     7.0172  MISS %:    92.9828   MPKI: 135.233
L0D LOAD      NON_SPEC    ACCESS:    7646432  HIT:     379605  MISS:    7266827  HIT %:    4.96447  MISS %:    95.0355   MPKI: 36.3341
L0D LOAD      SPEC        ACCESS:   21441387  HIT:    1661545  MISS:   19779842  HIT %:    7.74924  MISS %:    92.2508   MPKI: 98.8992
L0D PREFETCH  REQUESTED:          0  ISSUED:          0  USEFUL:          0  USELESS:          0
L0D USEFUL LOAD PREFETCHES:          0 PREFETCH ISSUED TO LOWER LEVEL:          0  ACCURACY: -nan
L0D TIMELY PREFETCHES:          0 LATE PREFETCHES: 0 DROPPED PREFETCHES: 0
L0D COMMIT LATE PREFETCHES: 0 NORMAL LATE: 0 MISSED OPPORTUNITY: 0 UNCOVERED: 27046669
L0D PREFETCHES SAME FILL-ORIGIN LEVEL: 0 DIFFERENT FILL-ORIGIN LEVEL: 0
L0D AVERAGE MISS LATENCY: 43.4443 cycles
L0D AVERAGE MISS LATENCY LOAD: 43.4443 cycles
L0D AVERAGE MISS LATENCY PREFETCH: -nan cycles
L0D AVERAGE MSHR OCCUPANCY: 0.899454
L0D MSHR FULL: 0
L0D RQ	ACCESS:   49171996	FORWARD:          0	MERGED:   19155363	TO_CACHE:   30016633
L0D WQ	ACCESS:    8868414	FORWARD:          0	MERGED:          0	TO_CACHE:    8868414

L1D SPEC fills:          0  NON-SPEC fills:    3344645
L1D Test counter :          0
L1D Leapfrog:          0
L1D MSHR merge:       2081
L1D TOTAL     ACCESS:   71368241  HIT:   52641964  MISS:   18726277  HIT %:    73.7611  MISS %:    26.2389   MPKI: 93.6314
L1D LOAD      TOTAL       ACCESS:   27046596  HIT:   16674182  MISS:   10372414  HIT %:    61.6498  MISS %:    38.3502   MPKI: 51.8621
L1D LOAD      NON_SPEC    ACCESS:    7266773  HIT:    3922128  MISS:    3344645  HIT %:    53.9734  MISS %:    46.0266   MPKI: 16.7232
L1D LOAD      SPEC        ACCESS:   19779823  HIT:   12752054  MISS:    7027769  HIT %:      64.47  MISS %:      35.53   MPKI: 35.1388
L1D RFO       NON_SPEC    ACCESS:    8867478  HIT:    8313131  MISS:     554347  HIT %:    93.7485  MISS %:    6.25146   MPKI: 2.77173
L1D PREFETCH  NON_SPEC    ACCESS:     803704  HIT:      31988  MISS:     771716  HIT %:    3.98007  MISS %:    96.0199   MPKI: 3.85858
L1D COMMIT LOAD NON_SPEC    ACCESS:   15261306  HIT:   15256977  MISS:       4329  HIT %:    99.9716  MISS %:  0.0283659   MPKI: 0.021645
L1D COMMIT WRITE NON_SPEC    ACCESS:   19389157  HIT:   12365686  MISS:    7023471  HIT %:    63.7763  MISS %:    36.2237   MPKI: 35.1174
L1D PREFETCH  REQUESTED:     808863  ISSUED:     808863  USEFUL:     162106  USELESS:     609613
L1D USEFUL LOAD PREFETCHES:     162106 PREFETCH ISSUED TO LOWER LEVEL:     773724  ACCURACY: 20.9514
L1D TIMELY PREFETCHES:     162106 LATE PREFETCHES: 2008 DROPPED PREFETCHES: 0
L1D COMMIT LATE PREFETCHES: 0 NORMAL LATE: 2008 MISSED OPPORTUNITY: 0 UNCOVERED: 10370406
L1D PREFETCHES SAME FILL-ORIGIN LEVEL: 773724 DIFFERENT FILL-ORIGIN LEVEL: 0
L1D AVERAGE MISS LATENCY: 57.5832 cycles
L1D AVERAGE MISS LATENCY LOAD: 99.88 cycles
L1D AVERAGE MISS LATENCY PREFETCH: 34.6802 cycles
L1D AVERAGE MSHR OCCUPANCY: 0.713456
L1D MSHR FULL: 0
L1D RQ	ACCESS:   49084066	FORWARD:          0	MERGED:    6776006	TO_CACHE:   42308060
L1D WQ	ACCESS:   28257573	FORWARD:          0	MERGED:          0	TO_CACHE:   28257573
L1D PQ	ACCESS:     808863	FORWARD:          0	MERGED:       1251	TO_CACHE:     807612

L1D UNIQUE REGIONS ACCESSED: 0
L1D REGIONS CONFLICTS: 0
L1D Cross Page Prefetch Requests: 0
L1D Same Page Prefetch Requests: 913129
L1D ROI Sum of L1D PQ occupancy: 10915687
L1D PREFETCHES PUSHED FROM L2C: 0
L1I SPEC fills:          0  NON-SPEC fills:          0
L1I Test counter :          0
L1I Leapfrog:          0
L1I MSHR merge:          0
L1I TOTAL     ACCESS:   39233904  HIT:   39233904  MISS:          0  HIT %:        100  MISS %:          0   MPKI: 0
L1I LOAD      TOTAL       ACCESS:   39233904  HIT:   39233904  MISS:          0  HIT %:        100  MISS %:          0   MPKI: 0
L1I LOAD      NON_SPEC    ACCESS:   39233904  HIT:   39233904  MISS:          0  HIT %:        100  MISS %:          0   MPKI: 0
L1I PREFETCH  REQUESTED:          0  ISSUED:          0  USEFUL:          0  USELESS:          0
L1I USEFUL LOAD PREFETCHES:          0 PREFETCH ISSUED TO LOWER LEVEL:          0  ACCURACY: -nan
L1I TIMELY PREFETCHES:          0 LATE PREFETCHES: 0 DROPPED PREFETCHES: 0
L1I COMMIT LATE PREFETCHES: 0 NORMAL LATE: 0 MISSED OPPORTUNITY: 0 UNCOVERED: 0
L1I PREFETCHES SAME FILL-ORIGIN LEVEL: 0 DIFFERENT FILL-ORIGIN LEVEL: 0
L1I AVERAGE MISS LATENCY: -nan cycles
L1I AVERAGE MISS LATENCY LOAD: -nan cycles
L1I AVERAGE MISS LATENCY PREFETCH: -nan cycles
L1I AVERAGE MSHR OCCUPANCY: 0
L1I MSHR FULL: 0
L1I RQ	ACCESS:   60562423	FORWARD:          0	MERGED:   21328517	TO_CACHE:   39233906

BTB SPEC fills:          0  NON-SPEC fills:          0
BTB Test counter :          0
BTB Leapfrog:          0
BTB MSHR merge:          0
BTB TOTAL     ACCESS:   26649158  HIT:   26649150  MISS:          8  HIT %:        100  MISS %: 3.00197e-05   MPKI: 4e-05
BTB BRANCH_DIRECT_JUMP	ACCESS:    4549688  HIT:    4549686  MISS:          2
BTB BRANCH_INDIRECT	ACCESS:          0  HIT:          0  MISS:          0
BTB BRANCH_CONDITIONAL	ACCESS:   13231060  HIT:   13231056  MISS:          4
BTB BRANCH_DIRECT_CALL	ACCESS:    4434205  HIT:    4434204  MISS:          1
BTB BRANCH_INDIRECT_CALL	ACCESS:          0  HIT:          0  MISS:          0
BTB BRANCH_RETURN	ACCESS:    4434205  HIT:    4434204  MISS:          1
BTB BRANCH_OTHER ACCESS:          0  HIT:          0  MISS:          0

L2C SPEC fills:          0  NON-SPEC fills:     851636
L2C Test counter :          0
L2C Leapfrog:          0
L2C MSHR merge:          0
L2C TOTAL     ACCESS:   42709786  HIT:   26984651  MISS:   15725135  HIT %:    63.1814  MISS %:    36.8186   MPKI: 78.6257
L2C LOAD      TOTAL       ACCESS:   10370406  HIT:    4081877  MISS:    6288529  HIT %:    39.3608  MISS %:    60.6392   MPKI: 31.4426
L2C LOAD      NON_SPEC    ACCESS:    3344417  HIT:    2492781  MISS:     851636  HIT %:    74.5356  MISS %:    25.4644   MPKI: 4.25818
L2C LOAD      SPEC        ACCESS:    7025989  HIT:    1589096  MISS:    5436893  HIT %:    22.6174  MISS %:    77.3826   MPKI: 27.1845
L2C RFO       NON_SPEC    ACCESS:     554347  HIT:     322884  MISS:     231463  HIT %:    58.2458  MISS %:    41.7542   MPKI: 1.15731
L2C PREFETCH  NON_SPEC    ACCESS:     773724  HIT:     513584  MISS:     260140  HIT %:    66.3782  MISS %:    33.6218   MPKI: 1.3007
L2C WRITEBACK NON_SPEC    ACCESS:     718085  HIT:     718085  MISS:          0  HIT %:        100  MISS %:          0   MPKI: 0
L2C CLEAN_EVICTION NON_SPEC    ACCESS:    7066410  HIT:    1438955  MISS:    5627455  HIT %:    20.3633  MISS %:    79.6367   MPKI: 28.1373
L2C COMMIT LOAD NON_SPEC    ACCESS:       4329  HIT:       2603  MISS:       1726  HIT %:    60.1294  MISS %:    39.8706   MPKI: 0.00863
L2C LOAD TRANSLATION NON_SPEC    ACCESS:   23220250  HIT:   19904968  MISS:    3315282  HIT %:    85.7225  MISS %:    14.2775   MPKI: 16.5764
L2C TRANSLATION FROM L1D PREFETCHER NON_SPEC    ACCESS:       2235  HIT:       1695  MISS:        540  HIT %:    75.8389  MISS %:    24.1611   MPKI: 0.0027
L2C PREFETCH  REQUESTED:          0  ISSUED:          0  USEFUL:       6930  USELESS:     253541
L2C USEFUL LOAD PREFETCHES:       6930 PREFETCH ISSUED TO LOWER LEVEL:     260140  ACCURACY: 2.66395
L2C TIMELY PREFETCHES:       6930 LATE PREFETCHES: 0 DROPPED PREFETCHES: 0
L2C COMMIT LATE PREFETCHES: 0 NORMAL LATE: 0 MISSED OPPORTUNITY: 0 UNCOVERED: 6288529
L2C PREFETCHES SAME FILL-ORIGIN LEVEL: 0 DIFFERENT FILL-ORIGIN LEVEL: 0
L2C AVERAGE MISS LATENCY: 65.7395 cycles
L2C AVERAGE MISS LATENCY LOAD: 144.214 cycles
L2C AVERAGE MISS LATENCY PREFETCH: 56.6436 cycles
L2C AVERAGE MSHR OCCUPANCY: 0.655588
L2C MSHR FULL: 0
L2C RQ	ACCESS:   34151567	FORWARD:          0	MERGED:          0	TO_CACHE:   34151567
L2C WQ	ACCESS:    7784495	FORWARD:          0	MERGED:          0	TO_CACHE:    7784495
L2C PQ	ACCESS:     773724	FORWARD:          0	MERGED:          0	TO_CACHE:     773724

L2C Instructions Evicting Data 0
L2C Translations Evicting Data 1818798
L2C Data Evicting Data 900750
L2C Instructions Evicting Instructions 0
L2C Translations Evicting Instructions 0
L2C Data Evicting Instructions 0
L2C Instructions Evicting Translations 0
L2C Translations Evicting Translations 1497024
L2C Data Evicting Translations 444215
L2C Dense regions hint from L2: 0
PSCL5 SPEC fills:          0  NON-SPEC fills:          0
PSCL5 Test counter :          0
PSCL5 Leapfrog:          0
PSCL5 MSHR merge:          0
PSCL5 TOTAL     ACCESS:          0  HIT:          0  MISS:          0  HIT %:       -nan  MISS %:       -nan   MPKI: 0
PSCL5 PREFETCH  REQUESTED:          0  ISSUED:          0  USEFUL:          0  USELESS:          0
PSCL5 USEFUL LOAD PREFETCHES:          0 PREFETCH ISSUED TO LOWER LEVEL:          0  ACCURACY: -nan
PSCL5 TIMELY PREFETCHES:          0 LATE PREFETCHES: 0 DROPPED PREFETCHES: 0
PSCL5 COMMIT LATE PREFETCHES: 0 NORMAL LATE: 0 MISSED OPPORTUNITY: 0 UNCOVERED: 0
PSCL5 PREFETCHES SAME FILL-ORIGIN LEVEL: 0 DIFFERENT FILL-ORIGIN LEVEL: 0

PSCL4 SPEC fills:          0  NON-SPEC fills:          0
PSCL4 Test counter :          0
PSCL4 Leapfrog:          0
PSCL4 MSHR merge:          0
PSCL4 TOTAL     ACCESS:          0  HIT:          0  MISS:          0  HIT %:       -nan  MISS %:       -nan   MPKI: 0
PSCL4 PREFETCH  REQUESTED:          0  ISSUED:          0  USEFUL:          0  USELESS:          0
PSCL4 USEFUL LOAD PREFETCHES:          0 PREFETCH ISSUED TO LOWER LEVEL:          0  ACCURACY: -nan
PSCL4 TIMELY PREFETCHES:          0 LATE PREFETCHES: 0 DROPPED PREFETCHES: 0
PSCL4 COMMIT LATE PREFETCHES: 0 NORMAL LATE: 0 MISSED OPPORTUNITY: 0 UNCOVERED: 0
PSCL4 PREFETCHES SAME FILL-ORIGIN LEVEL: 0 DIFFERENT FILL-ORIGIN LEVEL: 0

PSCL3 SPEC fills:          0  NON-SPEC fills:          0
PSCL3 Test counter :          0
PSCL3 Leapfrog:          0
PSCL3 MSHR merge:          0
PSCL3 TOTAL     ACCESS:          0  HIT:          0  MISS:          0  HIT %:       -nan  MISS %:       -nan   MPKI: 0
PSCL3 PREFETCH  REQUESTED:          0  ISSUED:          0  USEFUL:          0  USELESS:          0
PSCL3 USEFUL LOAD PREFETCHES:          0 PREFETCH ISSUED TO LOWER LEVEL:          0  ACCURACY: -nan
PSCL3 TIMELY PREFETCHES:          0 LATE PREFETCHES: 0 DROPPED PREFETCHES: 0
PSCL3 COMMIT LATE PREFETCHES: 0 NORMAL LATE: 0 MISSED OPPORTUNITY: 0 UNCOVERED: 0
PSCL3 PREFETCHES SAME FILL-ORIGIN LEVEL: 0 DIFFERENT FILL-ORIGIN LEVEL: 0

PSCL2 SPEC fills:          0  NON-SPEC fills:          0
PSCL2 Test counter :          0
PSCL2 Leapfrog:          0
PSCL2 MSHR merge:          0
PSCL2 TOTAL     ACCESS:          0  HIT:          0  MISS:          0  HIT %:       -nan  MISS %:       -nan   MPKI: 0
PSCL2 PREFETCH  REQUESTED:          0  ISSUED:          0  USEFUL:          0  USELESS:          0
PSCL2 USEFUL LOAD PREFETCHES:          0 PREFETCH ISSUED TO LOWER LEVEL:          0  ACCURACY: -nan
PSCL2 TIMELY PREFETCHES:          0 LATE PREFETCHES: 0 DROPPED PREFETCHES: 0
PSCL2 COMMIT LATE PREFETCHES: 0 NORMAL LATE: 0 MISSED OPPORTUNITY: 0 UNCOVERED: 0
PSCL2 PREFETCHES SAME FILL-ORIGIN LEVEL: 0 DIFFERENT FILL-ORIGIN LEVEL: 0

LLC SPEC fills:          0  NON-SPEC fills:     322833
LLC Test counter :          0
LLC Leapfrog:          0
LLC MSHR merge:          0
LLC TOTAL     ACCESS:   16241024  HIT:    6396143  MISS:    9844881  HIT %:    39.3826  MISS %:    60.6174   MPKI: 49.2244
LLC LOAD      TOTAL       ACCESS:    6288434  HIT:    1256705  MISS:    5031729  HIT %:    19.9844  MISS %:    80.0156   MPKI: 25.1586
LLC LOAD      NON_SPEC    ACCESS:     851550  HIT:     528717  MISS:     322833  HIT %:    62.0888  MISS %:    37.9112   MPKI: 1.61416
LLC LOAD      SPEC        ACCESS:    5436884  HIT:     727988  MISS:    4708896  HIT %:    13.3898  MISS %:    86.6102   MPKI: 23.5445
LLC RFO       NON_SPEC    ACCESS:     231458  HIT:     231456  MISS:          2  HIT %:    99.9991  MISS %: 0.000864088   MPKI: 1e-05
LLC PREFETCH  NON_SPEC    ACCESS:     260135  HIT:     221479  MISS:      38656  HIT %:      85.14  MISS %:      14.86   MPKI: 0.19328
LLC WRITEBACK NON_SPEC    ACCESS:     409643  HIT:     409643  MISS:          0  HIT %:        100  MISS %:          0   MPKI: 0
LLC CLEAN_EVICTION NON_SPEC    ACCESS:    5733806  HIT:     991116  MISS:    4742690  HIT %:    17.2855  MISS %:    82.7145   MPKI: 23.7134
LLC COMMIT LOAD NON_SPEC    ACCESS:       1726  HIT:        880  MISS:        846  HIT %:    50.9849  MISS %:    49.0151   MPKI: 0.00423
LLC LOAD TRANSLATION NON_SPEC    ACCESS:    3315282  HIT:    3284337  MISS:      30945  HIT %:    99.0666  MISS %:   0.933405   MPKI: 0.154725
LLC TRANSLATION FROM L1D PREFETCHER NON_SPEC    ACCESS:        540  HIT:        527  MISS:         13  HIT %:    97.5926  MISS %:    2.40741   MPKI: 6.5e-05
LLC PREFETCH  REQUESTED:          0  ISSUED:          0  USEFUL:       1196  USELESS:      37021
LLC USEFUL LOAD PREFETCHES:       1196 PREFETCH ISSUED TO LOWER LEVEL:      38656  ACCURACY: 3.09396
LLC TIMELY PREFETCHES:       1196 LATE PREFETCHES: 0 DROPPED PREFETCHES: 0
LLC COMMIT LATE PREFETCHES: 0 NORMAL LATE: 0 MISSED OPPORTUNITY: 0 UNCOVERED: 5031729
LLC PREFETCHES SAME FILL-ORIGIN LEVEL: 0 DIFFERENT FILL-ORIGIN LEVEL: 0
LLC AVERAGE MISS LATENCY: 79.1181 cycles
LLC AVERAGE MISS LATENCY LOAD: 152.312 cycles
LLC AVERAGE MISS LATENCY PREFETCH: 177.899 cycles
LLC AVERAGE MSHR OCCUPANCY: 0.665174
LLC MSHR FULL: 0
LLC RQ	ACCESS:    9837540	FORWARD:          0	MERGED:          0	TO_CACHE:    9837440
LLC WQ	ACCESS:    6143448	FORWARD:        105	MERGED:          0	TO_CACHE:    6143448
LLC PQ	ACCESS:     260140	FORWARD:          0	MERGED:          0	TO_CACHE:     260135

LLC Dense regions hint to LLC: 0

RAW hits: 4036723
Loads Generated: 53208719
Loads sent to L1D: 49171996
Stores Generated: 8868414
Stores sent to L1D: 8868414
Major fault: 0 Minor fault: 101164
Allocated PAGES: 101164
Total Load insts: 61412418
Total Non-spec loads: 9115999
Percentage of speculative loads: 85.1561

LeapFrogging counter: 0
Commit hits: 19389160 miss: 22037399
Commit hit %: 46.8037 miss %: 53.1963
Commits not translated: 0
Loads retired: 10372414
Stores retired: 8868414
Cache fills: 10372414
L1D response latency: 99.88 cycles
Load retirement latency: 231.611 cycles
OOO test counter: 0
Discarded buffer inserts: 19389160 hits: 88 hit %: 0.000453862
Filter prediction accuracy: -nan
Speculative prefetch buffer size: 0
CPU 0 L1D PC-based stride prefetcher final stats
Degree: 3

DRAM Statistics
 CHANNEL 0
 RQ ROW_BUFFER_HIT:      13229  ROW_BUFFER_MISS:    5088961
 DBUS_CONGESTED:         53
 WQ ROW_BUFFER_HIT:    1410447  ROW_BUFFER_MISS:    3604594  FULL:          0

 AVG_CONGESTED_CYCLE: 4
 All warmup complete: 2
Channel 0 Bank busy for read cycles: 0
Channel 0 Bank busy for write cycles: 0
Channel 0
Rank 0
0banks busy for read cycles: 63331881
0banks busy for write cycles: 632145
1banks busy for read cycles: 389097024
1banks busy for write cycles: 108130689
2banks busy for read cycles: 135075216
2banks busy for write cycles: 94675665
3banks busy for read cycles: 31857329
3banks busy for write cycles: 71338788
4banks busy for read cycles: 2076574
4banks busy for write cycles: 50481439
5banks busy for read cycles: 150881
5banks busy for write cycles: 30972906
6banks busy for read cycles: 28158
6banks busy for write cycles: 15555193
7banks busy for read cycles: 1082
7banks busy for write cycles: 6605561
8banks busy for read cycles: 0
8banks busy for write cycles: 2949544

CPU 0 Branch Prediction Accuracy: 99.988% MPKI: 0.01864 Average ROB Occupancy at Mispredict: 327.163
Branch types
NOT_BRANCH: 168845084 84.4225%
BRANCH_DIRECT_JUMP: 4549688 2.27484%
BRANCH_INDIRECT: 0 0%
BRANCH_CONDITIONAL: 17736819 8.86841%
BRANCH_DIRECT_CALL: 4434205 2.2171%
BRANCH_INDIRECT_CALL: 0 0%
BRANCH_RETURN: 4434205 2.2171%
BRANCH_OTHER: 0 0%

DRAM PAGES: 1048576
Allocated PAGES: 101164
