
*** ChampSim Multicore Out-of-Order Simulator ***

Warmup Instructions: 50000000
Simulation Instructions: 200000000
Number of CPUs: 1
LLC sets: 2048
LLC ways: 16
L0D sets: 16
L0D ways: 2
ROB size: 352
LQ size: 128
SQ size: 72
Secure Berti: OFF
Berti: OFF
Berti Fill: OFF
On commit prefetching: OFF
Hit-based filter: OFF
Time-guarding: ON
Free-slotting: ON
Leap-frogging: ON
Train prefetcher on L0D bypass: OFF
No translation penalty for prefetchers: OFF
Prefetch to L0D only: OFF
Prefetch to L1D only: OFF
Clean evictions: ON
Commit loads: ON
Commit write: ON
Fill commit loads to L2C, LLC: ON
DRAM IO FREQUENCY: 6400
ROB SIZE: 352
Off-chip DRAM Size: 4096 MB Channels: 1 Width: 64-bit Data Rate: 6400 MT/s
CPU 0 runs /home/sumon/secure_berti/GhostMinion/../../traces/spec/607.cactuBSSN_s-2421B.champsimtrace.xz
.xz
BTB has LRU replacement policy
ITLB has LRU replacement policy
DTLB has LRU replacement policy
STLB has LRU replacement policy
L1I has LRU replacement policy
L0D has LRU replacement policy
CPU 0 L1D IP-based stride prefetcher
L1D has LRU replacement policy
L2C has LRU replacement policy
LLC has LRU replacement policy
Heartbeat CPU 0 instructions: 10000002 cycles: 4564580 heartbeat IPC: 2.19078 cumulative IPC: 2.19078 (Simulation time: 0 hr 0 min 50 sec) 
Heartbeat CPU 0 instructions: 20000001 cycles: 9114523 heartbeat IPC: 2.19783 cumulative IPC: 2.1943 (Simulation time: 0 hr 1 min 42 sec) 
Heartbeat CPU 0 instructions: 30000002 cycles: 13675230 heartbeat IPC: 2.19264 cumulative IPC: 2.19375 (Simulation time: 0 hr 2 min 34 sec) 
Heartbeat CPU 0 instructions: 40000001 cycles: 18237043 heartbeat IPC: 2.19211 cumulative IPC: 2.19334 (Simulation time: 0 hr 3 min 33 sec) 
Heartbeat CPU 0 instructions: 50000003 cycles: 22799021 heartbeat IPC: 2.19203 cumulative IPC: 2.19308 (Simulation time: 0 hr 4 min 47 sec) 

Warmup complete CPU 0 instructions: 50000003 cycles: 22799021 (Simulation time: 0 hr 4 min 47 sec) 

Heartbeat CPU 0 instructions: 60000002 cycles: 35994442 heartbeat IPC: 0.757839 cumulative IPC: 0.757839 (Simulation time: 0 hr 5 min 46 sec) 
Heartbeat CPU 0 instructions: 70000000 cycles: 47440825 heartbeat IPC: 0.873638 cumulative IPC: 0.811629 (Simulation time: 0 hr 7 min 1 sec) 
Heartbeat CPU 0 instructions: 80000001 cycles: 58843931 heartbeat IPC: 0.876954 cumulative IPC: 0.832295 (Simulation time: 0 hr 8 min 16 sec) 
Heartbeat CPU 0 instructions: 90000000 cycles: 70215829 heartbeat IPC: 0.879361 cumulative IPC: 0.843583 (Simulation time: 0 hr 9 min 30 sec) 
Heartbeat CPU 0 instructions: 100000000 cycles: 81592058 heartbeat IPC: 0.879026 cumulative IPC: 0.850441 (Simulation time: 0 hr 10 min 24 sec) 
Heartbeat CPU 0 instructions: 110000000 cycles: 92990041 heartbeat IPC: 0.877348 cumulative IPC: 0.85481 (Simulation time: 0 hr 11 min 12 sec) 
Heartbeat CPU 0 instructions: 120000000 cycles: 104410547 heartbeat IPC: 0.875618 cumulative IPC: 0.857722 (Simulation time: 0 hr 12 min 1 sec) 
Heartbeat CPU 0 instructions: 130000002 cycles: 115801624 heartbeat IPC: 0.87788 cumulative IPC: 0.860191 (Simulation time: 0 hr 12 min 50 sec) 
Heartbeat CPU 0 instructions: 140000000 cycles: 127202708 heartbeat IPC: 0.877109 cumulative IPC: 0.862038 (Simulation time: 0 hr 13 min 40 sec) 
Heartbeat CPU 0 instructions: 150000001 cycles: 138826689 heartbeat IPC: 0.860291 cumulative IPC: 0.861863 (Simulation time: 0 hr 14 min 30 sec) 
Heartbeat CPU 0 instructions: 160000002 cycles: 150246420 heartbeat IPC: 0.875677 cumulative IPC: 0.863101 (Simulation time: 0 hr 15 min 21 sec) 
Heartbeat CPU 0 instructions: 170000000 cycles: 161608472 heartbeat IPC: 0.880123 cumulative IPC: 0.864494 (Simulation time: 0 hr 16 min 12 sec) 
Heartbeat CPU 0 instructions: 180000001 cycles: 173062326 heartbeat IPC: 0.873069 cumulative IPC: 0.865148 (Simulation time: 0 hr 17 min 3 sec) 
Heartbeat CPU 0 instructions: 190000000 cycles: 184484068 heartbeat IPC: 0.875523 cumulative IPC: 0.865881 (Simulation time: 0 hr 17 min 53 sec) 
Heartbeat CPU 0 instructions: 200000001 cycles: 195850089 heartbeat IPC: 0.879815 cumulative IPC: 0.866796 (Simulation time: 0 hr 18 min 43 sec) 
Heartbeat CPU 0 instructions: 210000003 cycles: 207266661 heartbeat IPC: 0.87592 cumulative IPC: 0.867361 (Simulation time: 0 hr 19 min 56 sec) 
Heartbeat CPU 0 instructions: 220000000 cycles: 218685547 heartbeat IPC: 0.875742 cumulative IPC: 0.867849 (Simulation time: 0 hr 21 min 11 sec) 
Heartbeat CPU 0 instructions: 230000003 cycles: 230115869 heartbeat IPC: 0.874866 cumulative IPC: 0.868236 (Simulation time: 0 hr 22 min 24 sec) 
Heartbeat CPU 0 instructions: 240000000 cycles: 241729536 heartbeat IPC: 0.861054 cumulative IPC: 0.867855 (Simulation time: 0 hr 23 min 31 sec) 
Heartbeat CPU 0 instructions: 250000002 cycles: 253159755 heartbeat IPC: 0.874874 cumulative IPC: 0.868204 (Simulation time: 0 hr 24 min 17 sec) 
Finished CPU 0 instructions: 200000003 cycles: 230360735 cumulative IPC: 0.868204 (Simulation time: 0 hr 24 min 17 sec) 
 Instruction ID: 250000065

ChampSim completed all CPUs

Region of Interest Statistics

CPU 0 cumulative IPC: 0.868204 instructions: 200000003 cycles: 230360735
ITLB SPEC fills:          0  NON-SPEC fills:          0
ITLB Test counter :          0
ITLB Leapfrog:          0
ITLB MSHR merge:          0
ITLB TOTAL     ACCESS:   26474911  HIT:   26474861  MISS:         50  HIT %:    99.9998  MISS %: 0.000188858   MPKI: 0.00025
ITLB LOAD TRANSLATION NON_SPEC    ACCESS:   26474911  HIT:   26474861  MISS:         50  HIT %:    99.9998  MISS %: 0.000188858   MPKI: 0.00025
ITLB PREFETCH  REQUESTED:          0  ISSUED:          0  USEFUL:          0  USELESS:          0
ITLB USEFUL LOAD PREFETCHES:          0 PREFETCH ISSUED TO LOWER LEVEL:          0  ACCURACY: -nan
ITLB TIMELY PREFETCHES:          0 LATE PREFETCHES: 0 DROPPED PREFETCHES: 0
ITLB COMMIT LATE PREFETCHES: 0 NORMAL LATE: 0 MISSED OPPORTUNITY: 0 UNCOVERED: 0
ITLB PREFETCHES SAME FILL-ORIGIN LEVEL: 0 DIFFERENT FILL-ORIGIN LEVEL: 0
ITLB AVERAGE MISS LATENCY: 451.18 cycles
ITLB AVERAGE MISS LATENCY LOAD: -nan cycles
ITLB AVERAGE MISS LATENCY PREFETCH: -nan cycles
ITLB AVERAGE MSHR OCCUPANCY: 3.39944e-07
ITLB MSHR FULL: 0
ITLB RQ	ACCESS:   34822066	FORWARD:          0	MERGED:    8347147	TO_CACHE:   26474919

DTLB SPEC fills:          0  NON-SPEC fills:          0
DTLB Test counter :          0
DTLB Leapfrog:          0
DTLB MSHR merge:          0
DTLB TOTAL     ACCESS:   44732300  HIT:   29724768  MISS:   15007532  HIT %:    66.4503  MISS %:    33.5497   MPKI: 75.0377
DTLB LOAD TRANSLATION NON_SPEC    ACCESS:   44732300  HIT:   29724768  MISS:   15007532  HIT %:    66.4503  MISS %:    33.5497   MPKI: 75.0377
DTLB PREFETCH  REQUESTED:          0  ISSUED:          0  USEFUL:          0  USELESS:          0
DTLB USEFUL LOAD PREFETCHES:          0 PREFETCH ISSUED TO LOWER LEVEL:          0  ACCURACY: -nan
DTLB TIMELY PREFETCHES:          0 LATE PREFETCHES: 0 DROPPED PREFETCHES: 0
DTLB COMMIT LATE PREFETCHES: 0 NORMAL LATE: 0 MISSED OPPORTUNITY: 0 UNCOVERED: 0
DTLB PREFETCHES SAME FILL-ORIGIN LEVEL: 0 DIFFERENT FILL-ORIGIN LEVEL: 0
DTLB AVERAGE MISS LATENCY: 10.1775 cycles
DTLB AVERAGE MISS LATENCY LOAD: -nan cycles
DTLB AVERAGE MISS LATENCY PREFETCH: -nan cycles
DTLB AVERAGE MSHR OCCUPANCY: 1.10901
DTLB MSHR FULL: 0.0387317
DTLB RQ	ACCESS:   63253897	FORWARD:          0	MERGED:   17477804	TO_CACHE:   45776093

STLB SPEC fills:          0  NON-SPEC fills:          0
STLB Test counter :          0
STLB Leapfrog:          0
STLB MSHR merge:          0
STLB TOTAL     ACCESS:   17898303  HIT:   17873752  MISS:      24551  HIT %:    99.8628  MISS %:   0.137169   MPKI: 0.122755
STLB LOAD TRANSLATION NON_SPEC    ACCESS:   15007582  HIT:   14983031  MISS:      24551  HIT %:    99.8364  MISS %:   0.163591   MPKI: 0.122755
STLB TRANSLATION FROM L1D PREFETCHER NON_SPEC    ACCESS:    2890721  HIT:    2890721  MISS:          0  HIT %:        100  MISS %:          0   MPKI: 0
STLB PREFETCH  REQUESTED:          0  ISSUED:          0  USEFUL:          0  USELESS:          0
STLB USEFUL LOAD PREFETCHES:          0 PREFETCH ISSUED TO LOWER LEVEL:          0  ACCURACY: -nan
STLB TIMELY PREFETCHES:          0 LATE PREFETCHES: 0 DROPPED PREFETCHES: 0
STLB COMMIT LATE PREFETCHES: 0 NORMAL LATE: 0 MISSED OPPORTUNITY: 0 UNCOVERED: 0
STLB PREFETCHES SAME FILL-ORIGIN LEVEL: 0 DIFFERENT FILL-ORIGIN LEVEL: 0
STLB AVERAGE MISS LATENCY: 522.485 cycles
STLB AVERAGE MISS LATENCY LOAD: -nan cycles
STLB AVERAGE MISS LATENCY PREFETCH: -nan cycles
STLB AVERAGE MSHR OCCUPANCY: 0.0208139
STLB MSHR FULL: 0
STLB RQ	ACCESS:   23699741	FORWARD:          0	MERGED:    5801437	TO_CACHE:   17898304

STLB Hit, L1D data hit: 0
STLB Hit, L2C data hit: 0
STLB Hit, LLC data hit: 0
STLB Hit, LLC data miss: 0
STLB STLB hints to L2: 0
L0D SPEC fills:   31828771  NON-SPEC fills:          0
L0D TimeGuard Request with older TS:     413920 Restricted eviction:    1005417 read:     130603
L0D Test counter :          0
L0D Leapfrog:          0
L0D MSHR merge:    2780008
L0D TOTAL     ACCESS:   37688783  HIT:    3798572  MISS:   33890211  HIT %:    10.0788  MISS %:    89.9212   MPKI: 169.451
L0D LOAD      TOTAL       ACCESS:   37688783  HIT:    3798572  MISS:   33890211  HIT %:    10.0788  MISS %:    89.9212   MPKI: 169.451
L0D LOAD      NON_SPEC    ACCESS:    1114266  HIT:      58242  MISS:    1056024  HIT %:    5.22694  MISS %:    94.7731   MPKI: 5.28012
L0D LOAD      SPEC        ACCESS:   36574517  HIT:    3740330  MISS:   32834187  HIT %:    10.2266  MISS %:    89.7734   MPKI: 164.171
L0D PREFETCH  REQUESTED:          0  ISSUED:          0  USEFUL:          0  USELESS:          0
L0D USEFUL LOAD PREFETCHES:          0 PREFETCH ISSUED TO LOWER LEVEL:          0  ACCURACY: -nan
L0D TIMELY PREFETCHES:          0 LATE PREFETCHES: 0 DROPPED PREFETCHES: 0
L0D COMMIT LATE PREFETCHES: 0 NORMAL LATE: 0 MISSED OPPORTUNITY: 0 UNCOVERED: 33890211
L0D PREFETCHES SAME FILL-ORIGIN LEVEL: 0 DIFFERENT FILL-ORIGIN LEVEL: 0
L0D AVERAGE MISS LATENCY: 15.0457 cycles
L0D AVERAGE MISS LATENCY LOAD: 15.0457 cycles
L0D AVERAGE MISS LATENCY PREFETCH: -nan cycles
L0D AVERAGE MSHR OCCUPANCY: 3.46859
L0D MSHR FULL: 0.228417
L0D RQ	ACCESS:   57218413	FORWARD:          0	MERGED:   16749630	TO_CACHE:   40468783
L0D WQ	ACCESS:   22785114	FORWARD:          0	MERGED:          0	TO_CACHE:   22785114

L1D SPEC fills:          0  NON-SPEC fills:     394461
L1D Test counter :          0
L1D Leapfrog:          0
L1D MSHR merge:      60481
L1D TOTAL     ACCESS:  102487511  HIT:   52859636  MISS:   49627875  HIT %:    51.5767  MISS %:    48.4233   MPKI: 248.139
L1D LOAD      TOTAL       ACCESS:   33830081  HIT:   12394095  MISS:   21435986  HIT %:    36.6363  MISS %:    63.3637   MPKI: 107.18
L1D LOAD      NON_SPEC    ACCESS:    1053831  HIT:     659370  MISS:     394461  HIT %:    62.5689  MISS %:    37.4311   MPKI: 1.9723
L1D LOAD      SPEC        ACCESS:   32776250  HIT:   11734725  MISS:   21041525  HIT %:    35.8025  MISS %:    64.1975   MPKI: 105.208
L1D RFO       NON_SPEC    ACCESS:   21293765  HIT:   19657512  MISS:    1636253  HIT %:    92.3158  MISS %:    7.68419   MPKI: 8.18126
L1D PREFETCH  NON_SPEC    ACCESS:    5290512  HIT:     432316  MISS:    4858196  HIT %:    8.17153  MISS %:    91.8285   MPKI: 24.291
L1D COMMIT LOAD NON_SPEC    ACCESS:   10615451  HIT:    9359639  MISS:    1255812  HIT %:      88.17  MISS %:      11.83   MPKI: 6.27906
L1D COMMIT WRITE NON_SPEC    ACCESS:   31457702  HIT:   11016074  MISS:   20441628  HIT %:    35.0187  MISS %:    64.9813   MPKI: 102.208
L1D PREFETCH  REQUESTED:   10302993  ISSUED:    9026164  USEFUL:     112372  USELESS:    4745671
L1D USEFUL LOAD PREFETCHES:     112372 PREFETCH ISSUED TO LOWER LEVEL:   28556919  ACCURACY: 0.393502
L1D TIMELY PREFETCHES:     112372 LATE PREFETCHES: 1160 DROPPED PREFETCHES: 0
L1D COMMIT LATE PREFETCHES: 0 NORMAL LATE: 1160 MISSED OPPORTUNITY: 0 UNCOVERED: 21434826
L1D PREFETCHES SAME FILL-ORIGIN LEVEL: 6579736 DIFFERENT FILL-ORIGIN LEVEL: 21977183
L1D AVERAGE MISS LATENCY: 14.2493 cycles
L1D AVERAGE MISS LATENCY LOAD: 14.2471 cycles
L1D AVERAGE MISS LATENCY PREFETCH: 72.915 cycles
L1D AVERAGE MSHR OCCUPANCY: 3.23091
L1D MSHR FULL: 0.0347303
L1D RQ	ACCESS:   58464612	FORWARD:          0	MERGED:   13941577	TO_CACHE:   44521839
L1D WQ	ACCESS:   54243246	FORWARD:       1196	MERGED:    1361780	TO_CACHE:   52881466
L1D PQ	ACCESS:    9026164	FORWARD:          0	MERGED:     334006	TO_CACHE:    8692158

L1D UNIQUE REGIONS ACCESSED: 0
L1D REGIONS CONFLICTS: 0
L1D Cross Page Prefetch Requests: 0
L1D Same Page Prefetch Requests: 9026164
L1D ROI Sum of L1D PQ occupancy: 257417760
L1D PREFETCHES PUSHED FROM L2C: 0
L1I SPEC fills:          0  NON-SPEC fills:          0
L1I Test counter :          0
L1I Leapfrog:          0
L1I MSHR merge:      24745
L1I TOTAL     ACCESS:   34797322  HIT:   34747665  MISS:      49657  HIT %:    99.8573  MISS %:   0.142704   MPKI: 0.248285
L1I LOAD      TOTAL       ACCESS:   34797322  HIT:   34747665  MISS:      49657  HIT %:    99.8573  MISS %:   0.142704   MPKI: 0.248285
L1I LOAD      NON_SPEC    ACCESS:   34797322  HIT:   34747665  MISS:      49657  HIT %:    99.8573  MISS %:   0.142704   MPKI: 0.248285
L1I PREFETCH  REQUESTED:          0  ISSUED:          0  USEFUL:          0  USELESS:          0
L1I USEFUL LOAD PREFETCHES:          0 PREFETCH ISSUED TO LOWER LEVEL:          0  ACCURACY: -nan
L1I TIMELY PREFETCHES:          0 LATE PREFETCHES: 0 DROPPED PREFETCHES: 0
L1I COMMIT LATE PREFETCHES: 0 NORMAL LATE: 0 MISSED OPPORTUNITY: 0 UNCOVERED: 49657
L1I PREFETCHES SAME FILL-ORIGIN LEVEL: 0 DIFFERENT FILL-ORIGIN LEVEL: 0
L1I AVERAGE MISS LATENCY: 17.5197 cycles
L1I AVERAGE MISS LATENCY LOAD: 17.5197 cycles
L1I AVERAGE MISS LATENCY PREFETCH: -nan cycles
L1I AVERAGE MSHR OCCUPANCY: 0.00193331
L1I MSHR FULL: 0
L1I RQ	ACCESS:   51198499	FORWARD:          0	MERGED:   16376433	TO_CACHE:   34822066

BTB SPEC fills:          0  NON-SPEC fills:          0
BTB Test counter :          0
BTB Leapfrog:          0
BTB MSHR merge:          0
BTB TOTAL     ACCESS:     207305  HIT:     204093  MISS:       3212  HIT %:    98.4506  MISS %:    1.54941   MPKI: 0.01606
BTB BRANCH_DIRECT_JUMP	ACCESS:      61458  HIT:      61423  MISS:         35
BTB BRANCH_INDIRECT	ACCESS:      58898  HIT:      58820  MISS:         78
BTB BRANCH_CONDITIONAL	ACCESS:      74915  HIT:      74516  MISS:        399
BTB BRANCH_DIRECT_CALL	ACCESS:       6013  HIT:       5388  MISS:        625
BTB BRANCH_INDIRECT_CALL	ACCESS:          3  HIT:          0  MISS:          3
BTB BRANCH_RETURN	ACCESS:       6018  HIT:       3946  MISS:       2072
BTB BRANCH_OTHER ACCESS:          0  HIT:          0  MISS:          0

L2C SPEC fills:          0  NON-SPEC fills:       1893
L2C Test counter :          0
L2C Leapfrog:          0
L2C MSHR merge:          0
L2C TOTAL     ACCESS:   54490337  HIT:   52409978  MISS:    2080359  HIT %:    96.1822  MISS %:    3.81785   MPKI: 10.4018
L2C LOAD      TOTAL       ACCESS:   21123118  HIT:   20995524  MISS:     127594  HIT %:     99.396  MISS %:   0.604049   MPKI: 0.63797
L2C LOAD      NON_SPEC    ACCESS:     424954  HIT:     422219  MISS:       2735  HIT %:    99.3564  MISS %:   0.643599   MPKI: 0.013675
L2C LOAD      SPEC        ACCESS:   20698164  HIT:   20573305  MISS:     124859  HIT %:    99.3968  MISS %:   0.603237   MPKI: 0.624295
L2C RFO       NON_SPEC    ACCESS:    1630884  HIT:    1629073  MISS:       1811  HIT %:     99.889  MISS %:   0.111044   MPKI: 0.009055
L2C PREFETCH  NON_SPEC    ACCESS:    8246140  HIT:    6455863  MISS:    1790277  HIT %:    78.2895  MISS %:    21.7105   MPKI: 8.95138
L2C WRITEBACK NON_SPEC    ACCESS:    1641358  HIT:    1641108  MISS:        250  HIT %:    99.9848  MISS %:  0.0152313   MPKI: 0.00125
L2C CLEAN_EVICTION NON_SPEC    ACCESS:   20553961  HIT:   20430972  MISS:     122989  HIT %:    99.4016  MISS %:   0.598371   MPKI: 0.614945
L2C COMMIT LOAD NON_SPEC    ACCESS:    1172194  HIT:    1165089  MISS:       7105  HIT %:    99.3939  MISS %:   0.606128   MPKI: 0.035525
L2C LOAD TRANSLATION NON_SPEC    ACCESS:     122682  HIT:      92349  MISS:      30333  HIT %:    75.2751  MISS %:    24.7249   MPKI: 0.151665
L2C PREFETCH  REQUESTED:          0  ISSUED:          0  USEFUL:    1772945  USELESS:      16837
L2C USEFUL LOAD PREFETCHES:    1772945 PREFETCH ISSUED TO LOWER LEVEL:    1790278  ACCURACY: 99.0318
L2C TIMELY PREFETCHES:    1772945 LATE PREFETCHES: 0 DROPPED PREFETCHES: 0
L2C COMMIT LATE PREFETCHES: 0 NORMAL LATE: 0 MISSED OPPORTUNITY: 0 UNCOVERED: 127594
L2C PREFETCHES SAME FILL-ORIGIN LEVEL: 1211010 DIFFERENT FILL-ORIGIN LEVEL: 0
L2C AVERAGE MISS LATENCY: 655.319 cycles
L2C AVERAGE MISS LATENCY LOAD: 382.263 cycles
L2C AVERAGE MISS LATENCY PREFETCH: 731.208 cycles
L2C AVERAGE MSHR OCCUPANCY: 7.37237
L2C MSHR FULL: 0.154257
L2C RQ	ACCESS:   24499231	FORWARD:          0	MERGED:          0	TO_CACHE:   24048878
L2C WQ	ACCESS:   22196701	FORWARD:     450354	MERGED:       1382	TO_CACHE:   22195319
L2C PQ	ACCESS:    8246295	FORWARD:          0	MERGED:        130	TO_CACHE:    8246164

L2C Instructions Evicting Data 832
L2C Translations Evicting Data 28926
L2C Data Evicting Data 1773306
L2C Instructions Evicting Instructions 7
L2C Translations Evicting Instructions 6
L2C Data Evicting Instructions 876
L2C Instructions Evicting Translations 3
L2C Translations Evicting Translations 1401
L2C Data Evicting Translations 26904
L2C Dense regions hint from L2: 0
PSCL5 SPEC fills:          0  NON-SPEC fills:          0
PSCL5 Test counter :          0
PSCL5 Leapfrog:          0
PSCL5 MSHR merge:          0
PSCL5 TOTAL     ACCESS:          0  HIT:          0  MISS:          0  HIT %:       -nan  MISS %:       -nan   MPKI: 0
PSCL5 PREFETCH  REQUESTED:          0  ISSUED:          0  USEFUL:          0  USELESS:          0
PSCL5 USEFUL LOAD PREFETCHES:          0 PREFETCH ISSUED TO LOWER LEVEL:          0  ACCURACY: -nan
PSCL5 TIMELY PREFETCHES:          0 LATE PREFETCHES: 0 DROPPED PREFETCHES: 0
PSCL5 COMMIT LATE PREFETCHES: 0 NORMAL LATE: 0 MISSED OPPORTUNITY: 0 UNCOVERED: 0
PSCL5 PREFETCHES SAME FILL-ORIGIN LEVEL: 0 DIFFERENT FILL-ORIGIN LEVEL: 0

PSCL4 SPEC fills:          0  NON-SPEC fills:          0
PSCL4 Test counter :          0
PSCL4 Leapfrog:          0
PSCL4 MSHR merge:          0
PSCL4 TOTAL     ACCESS:          0  HIT:          0  MISS:          0  HIT %:       -nan  MISS %:       -nan   MPKI: 0
PSCL4 PREFETCH  REQUESTED:          0  ISSUED:          0  USEFUL:          0  USELESS:          0
PSCL4 USEFUL LOAD PREFETCHES:          0 PREFETCH ISSUED TO LOWER LEVEL:          0  ACCURACY: -nan
PSCL4 TIMELY PREFETCHES:          0 LATE PREFETCHES: 0 DROPPED PREFETCHES: 0
PSCL4 COMMIT LATE PREFETCHES: 0 NORMAL LATE: 0 MISSED OPPORTUNITY: 0 UNCOVERED: 0
PSCL4 PREFETCHES SAME FILL-ORIGIN LEVEL: 0 DIFFERENT FILL-ORIGIN LEVEL: 0

PSCL3 SPEC fills:          0  NON-SPEC fills:          0
PSCL3 Test counter :          0
PSCL3 Leapfrog:          0
PSCL3 MSHR merge:          0
PSCL3 TOTAL     ACCESS:          0  HIT:          0  MISS:          0  HIT %:       -nan  MISS %:       -nan   MPKI: 0
PSCL3 PREFETCH  REQUESTED:          0  ISSUED:          0  USEFUL:          0  USELESS:          0
PSCL3 USEFUL LOAD PREFETCHES:          0 PREFETCH ISSUED TO LOWER LEVEL:          0  ACCURACY: -nan
PSCL3 TIMELY PREFETCHES:          0 LATE PREFETCHES: 0 DROPPED PREFETCHES: 0
PSCL3 COMMIT LATE PREFETCHES: 0 NORMAL LATE: 0 MISSED OPPORTUNITY: 0 UNCOVERED: 0
PSCL3 PREFETCHES SAME FILL-ORIGIN LEVEL: 0 DIFFERENT FILL-ORIGIN LEVEL: 0

PSCL2 SPEC fills:          0  NON-SPEC fills:          0
PSCL2 Test counter :          0
PSCL2 Leapfrog:          0
PSCL2 MSHR merge:          0
PSCL2 TOTAL     ACCESS:          0  HIT:          0  MISS:          0  HIT %:       -nan  MISS %:       -nan   MPKI: 0
PSCL2 PREFETCH  REQUESTED:          0  ISSUED:          0  USEFUL:          0  USELESS:          0
PSCL2 USEFUL LOAD PREFETCHES:          0 PREFETCH ISSUED TO LOWER LEVEL:          0  ACCURACY: -nan
PSCL2 TIMELY PREFETCHES:          0 LATE PREFETCHES: 0 DROPPED PREFETCHES: 0
PSCL2 COMMIT LATE PREFETCHES: 0 NORMAL LATE: 0 MISSED OPPORTUNITY: 0 UNCOVERED: 0
PSCL2 PREFETCHES SAME FILL-ORIGIN LEVEL: 0 DIFFERENT FILL-ORIGIN LEVEL: 0

LLC SPEC fills:          0  NON-SPEC fills:        931
LLC Test counter :          0
LLC Leapfrog:          0
LLC MSHR merge:          0
LLC TOTAL     ACCESS:    3861752  HIT:    2190899  MISS:    1670853  HIT %:    56.7333  MISS %:    43.2667   MPKI: 8.35426
LLC LOAD      TOTAL       ACCESS:     127562  HIT:      27999  MISS:      99563  HIT %:    21.9493  MISS %:    78.0507   MPKI: 0.497815
LLC LOAD      NON_SPEC    ACCESS:       2735  HIT:        974  MISS:       1761  HIT %:    35.6124  MISS %:    64.3876   MPKI: 0.008805
LLC LOAD      SPEC        ACCESS:     124827  HIT:      27025  MISS:      97802  HIT %:      21.65  MISS %:      78.35   MPKI: 0.48901
LLC RFO       NON_SPEC    ACCESS:       1319  HIT:        211  MISS:       1108  HIT %:     15.997  MISS %:     84.003   MPKI: 0.00554
LLC PREFETCH  NON_SPEC    ACCESS:    1789991  HIT:     359720  MISS:    1430271  HIT %:    20.0962  MISS %:    79.9038   MPKI: 7.15135
LLC WRITEBACK NON_SPEC    ACCESS:     132660  HIT:     132567  MISS:         93  HIT %:    99.9299  MISS %:   0.070104   MPKI: 0.000465
LLC CLEAN_EVICTION NON_SPEC    ACCESS:    1772818  HIT:    1641661  MISS:     131157  HIT %:    92.6018  MISS %:    7.39822   MPKI: 0.655785
LLC COMMIT LOAD NON_SPEC    ACCESS:       7069  HIT:       2208  MISS:       4861  HIT %:     31.235  MISS %:     68.765   MPKI: 0.024305
LLC LOAD TRANSLATION NON_SPEC    ACCESS:      30333  HIT:      26533  MISS:       3800  HIT %:    87.4724  MISS %:    12.5276   MPKI: 0.019
LLC PREFETCH  REQUESTED:          0  ISSUED:          0  USEFUL:      13728  USELESS:    1387073
LLC USEFUL LOAD PREFETCHES:      13728 PREFETCH ISSUED TO LOWER LEVEL:    1430272  ACCURACY: 0.959817
LLC TIMELY PREFETCHES:      13728 LATE PREFETCHES: 0 DROPPED PREFETCHES: 0
LLC COMMIT LATE PREFETCHES: 0 NORMAL LATE: 0 MISSED OPPORTUNITY: 0 UNCOVERED: 99563
LLC PREFETCHES SAME FILL-ORIGIN LEVEL: 0 DIFFERENT FILL-ORIGIN LEVEL: 0
LLC AVERAGE MISS LATENCY: 779.461 cycles
LLC AVERAGE MISS LATENCY LOAD: 442.879 cycles
LLC AVERAGE MISS LATENCY PREFETCH: 876.749 cycles
LLC AVERAGE MSHR OCCUPANCY: 14.6296
LLC MSHR FULL: 0
LLC RQ	ACCESS:     166843	FORWARD:          0	MERGED:          0	TO_CACHE:     166283
LLC WQ	ACCESS:    1905478	FORWARD:        846	MERGED:          0	TO_CACHE:    1905478
LLC PQ	ACCESS:    1790278	FORWARD:          0	MERGED:          0	TO_CACHE:    1789992

LLC Dense regions hint to LLC: 0

RAW hits: 73342
Loads Generated: 57291759
Loads sent to L1D: 57218413
Stores Generated: 22785115
Stores sent to L1D: 22785114
Major fault: 0 Minor fault: 17275
Allocated PAGES: 17275
Total Load insts: 86503405
Total Non-spec loads: 2213483
Percentage of speculative loads: 97.4412

LeapFrogging counter: 4238758
Commit hits: 31458133 miss: 24574408
Commit hit %: 56.1426 miss %: 43.8574
Commits not translated: 0
Loads retired: 21435985
Stores retired: 22785114
Cache fills: 21435986
L1D response latency: 14.2471 cycles
Load retirement latency: 60.0909 cycles
OOO test counter: 0
Discarded buffer inserts: 31458133 hits: 928885 hit %: 2.95277
Filter prediction accuracy: -nan
Speculative prefetch buffer size: 0
CPU 0 L1D PC-based stride prefetcher final stats
Degree: 3

DRAM Statistics
 CHANNEL 0
 RQ ROW_BUFFER_HIT:     778619  ROW_BUFFER_MISS:     760984
 DBUS_CONGESTED:         82
 WQ ROW_BUFFER_HIT:     643826  ROW_BUFFER_MISS:     900321  FULL:        426

 AVG_CONGESTED_CYCLE: 4
 All warmup complete: 2
Channel 0 Bank busy for read cycles: 0
Channel 0 Bank busy for write cycles: 0
Channel 0
Rank 0
0banks busy for read cycles: 114680567
0banks busy for write cycles: 208684
1banks busy for read cycles: 19910221
1banks busy for write cycles: 20468638
2banks busy for read cycles: 5742358
2banks busy for write cycles: 7897876
3banks busy for read cycles: 7959662
3banks busy for write cycles: 7662576
4banks busy for read cycles: 8068116
4banks busy for write cycles: 5938927
5banks busy for read cycles: 5429463
5banks busy for write cycles: 5830670
6banks busy for read cycles: 4932974
6banks busy for write cycles: 6156966
7banks busy for read cycles: 2671317
7banks busy for write cycles: 4781945
8banks busy for read cycles: 869637
8banks busy for write cycles: 1150139

CPU 0 Branch Prediction Accuracy: 99.5304% MPKI: 0.00654 Average ROB Occupancy at Mispredict: 30.8203
Branch types
NOT_BRANCH: 199721154 99.8606%
BRANCH_DIRECT_JUMP: 61458 0.030729%
BRANCH_INDIRECT: 58898 0.029449%
BRANCH_CONDITIONAL: 146150 0.073075%
BRANCH_DIRECT_CALL: 6013 0.0030065%
BRANCH_INDIRECT_CALL: 3 1.5e-06%
BRANCH_RETURN: 6018 0.003009%
BRANCH_OTHER: 0 0%

DRAM PAGES: 1048576
Allocated PAGES: 17275
