
*** ChampSim Multicore Out-of-Order Simulator ***

Warmup Instructions: 50000000
Simulation Instructions: 200000000
Number of CPUs: 1
LLC sets: 2048
LLC ways: 16
L0D sets: 16
L0D ways: 2
ROB size: 352
LQ size: 128
SQ size: 72
Secure Berti: OFF
Berti: OFF
Berti Fill: OFF
On commit prefetching: OFF
Hit-based filter: OFF
Time-guarding: ON
Free-slotting: ON
Leap-frogging: ON
Train prefetcher on L0D bypass: OFF
No translation penalty for prefetchers: OFF
Prefetch to L0D only: OFF
Prefetch to L1D only: OFF
Clean evictions: ON
Commit loads: ON
Commit write: ON
Fill commit loads to L2C, LLC: ON
DRAM IO FREQUENCY: 6400
ROB SIZE: 352
Off-chip DRAM Size: 4096 MB Channels: 1 Width: 64-bit Data Rate: 6400 MT/s
CPU 0 runs /home/sumon/secure_berti/GhostMinion/../../traces/spec/607.cactuBSSN_s-3477B.champsimtrace.xz
.xz
BTB has LRU replacement policy
ITLB has LRU replacement policy
DTLB has LRU replacement policy
STLB has LRU replacement policy
L1I has LRU replacement policy
L0D has LRU replacement policy
CPU 0 L1D IP-based stride prefetcher
L1D has LRU replacement policy
L2C has LRU replacement policy
LLC has LRU replacement policy
Heartbeat CPU 0 instructions: 10000000 cycles: 4587364 heartbeat IPC: 2.1799 cumulative IPC: 2.1799 (Simulation time: 0 hr 1 min 3 sec) 
Heartbeat CPU 0 instructions: 20000001 cycles: 9188979 heartbeat IPC: 2.17315 cumulative IPC: 2.17652 (Simulation time: 0 hr 2 min 0 sec) 
Heartbeat CPU 0 instructions: 30000000 cycles: 13786872 heartbeat IPC: 2.17491 cumulative IPC: 2.17598 (Simulation time: 0 hr 2 min 53 sec) 
Heartbeat CPU 0 instructions: 40000003 cycles: 18362606 heartbeat IPC: 2.18544 cumulative IPC: 2.17834 (Simulation time: 0 hr 3 min 47 sec) 
Heartbeat CPU 0 instructions: 50000002 cycles: 22958644 heartbeat IPC: 2.17579 cumulative IPC: 2.17783 (Simulation time: 0 hr 5 min 10 sec) 

Warmup complete CPU 0 instructions: 50000002 cycles: 22958644 (Simulation time: 0 hr 5 min 10 sec) 

Heartbeat CPU 0 instructions: 60000000 cycles: 40489189 heartbeat IPC: 0.570433 cumulative IPC: 0.570433 (Simulation time: 0 hr 6 min 14 sec) 
Heartbeat CPU 0 instructions: 70000002 cycles: 57990377 heartbeat IPC: 0.57139 cumulative IPC: 0.570911 (Simulation time: 0 hr 7 min 17 sec) 
Heartbeat CPU 0 instructions: 80000003 cycles: 75614644 heartbeat IPC: 0.5674 cumulative IPC: 0.569736 (Simulation time: 0 hr 8 min 22 sec) 
Heartbeat CPU 0 instructions: 90000002 cycles: 93148739 heartbeat IPC: 0.570317 cumulative IPC: 0.569881 (Simulation time: 0 hr 9 min 38 sec) 
Heartbeat CPU 0 instructions: 100000001 cycles: 110641204 heartbeat IPC: 0.571675 cumulative IPC: 0.570239 (Simulation time: 0 hr 11 min 11 sec) 
Heartbeat CPU 0 instructions: 110000000 cycles: 128074218 heartbeat IPC: 0.573624 cumulative IPC: 0.5708 (Simulation time: 0 hr 12 min 14 sec) 
Heartbeat CPU 0 instructions: 120000002 cycles: 145635860 heartbeat IPC: 0.569423 cumulative IPC: 0.570603 (Simulation time: 0 hr 13 min 16 sec) 
Heartbeat CPU 0 instructions: 130000000 cycles: 163202383 heartbeat IPC: 0.569265 cumulative IPC: 0.570435 (Simulation time: 0 hr 14 min 18 sec) 
Heartbeat CPU 0 instructions: 140000000 cycles: 180779231 heartbeat IPC: 0.56893 cumulative IPC: 0.570268 (Simulation time: 0 hr 15 min 23 sec) 
Heartbeat CPU 0 instructions: 150000001 cycles: 198146270 heartbeat IPC: 0.575803 cumulative IPC: 0.570817 (Simulation time: 0 hr 16 min 26 sec) 
Heartbeat CPU 0 instructions: 160000001 cycles: 215788789 heartbeat IPC: 0.566812 cumulative IPC: 0.57045 (Simulation time: 0 hr 17 min 30 sec) 
Heartbeat CPU 0 instructions: 170000000 cycles: 233255134 heartbeat IPC: 0.57253 cumulative IPC: 0.570623 (Simulation time: 0 hr 18 min 32 sec) 
Heartbeat CPU 0 instructions: 180000000 cycles: 250828828 heartbeat IPC: 0.569032 cumulative IPC: 0.5705 (Simulation time: 0 hr 19 min 35 sec) 
Heartbeat CPU 0 instructions: 190000000 cycles: 268171705 heartbeat IPC: 0.576606 cumulative IPC: 0.570932 (Simulation time: 0 hr 20 min 37 sec) 
Heartbeat CPU 0 instructions: 200000000 cycles: 286272564 heartbeat IPC: 0.55246 cumulative IPC: 0.569662 (Simulation time: 0 hr 21 min 39 sec) 
Heartbeat CPU 0 instructions: 210000001 cycles: 303939771 heartbeat IPC: 0.56602 cumulative IPC: 0.569433 (Simulation time: 0 hr 22 min 39 sec) 
Heartbeat CPU 0 instructions: 220000000 cycles: 321455477 heartbeat IPC: 0.570916 cumulative IPC: 0.56952 (Simulation time: 0 hr 23 min 39 sec) 
Heartbeat CPU 0 instructions: 230000000 cycles: 338911815 heartbeat IPC: 0.572858 cumulative IPC: 0.569705 (Simulation time: 0 hr 24 min 37 sec) 
Heartbeat CPU 0 instructions: 240000001 cycles: 356512753 heartbeat IPC: 0.568152 cumulative IPC: 0.569623 (Simulation time: 0 hr 25 min 34 sec) 
Heartbeat CPU 0 instructions: 250000002 cycles: 374091529 heartbeat IPC: 0.568868 cumulative IPC: 0.569585 (Simulation time: 0 hr 26 min 29 sec) 
Finished CPU 0 instructions: 200000000 cycles: 351132885 cumulative IPC: 0.569585 (Simulation time: 0 hr 26 min 29 sec) 
 Instruction ID: 250000026

ChampSim completed all CPUs

Region of Interest Statistics

CPU 0 cumulative IPC: 0.569585 instructions: 200000000 cycles: 351132885
ITLB SPEC fills:          0  NON-SPEC fills:          0
ITLB Test counter :          0
ITLB Leapfrog:          0
ITLB MSHR merge:          0
ITLB TOTAL     ACCESS:   28738703  HIT:   28738703  MISS:          0  HIT %:        100  MISS %:          0   MPKI: 0
ITLB LOAD TRANSLATION NON_SPEC    ACCESS:   28738703  HIT:   28738703  MISS:          0  HIT %:        100  MISS %:          0   MPKI: 0
ITLB PREFETCH  REQUESTED:          0  ISSUED:          0  USEFUL:          0  USELESS:          0
ITLB USEFUL LOAD PREFETCHES:          0 PREFETCH ISSUED TO LOWER LEVEL:          0  ACCURACY: -nan
ITLB TIMELY PREFETCHES:          0 LATE PREFETCHES: 0 DROPPED PREFETCHES: 0
ITLB COMMIT LATE PREFETCHES: 0 NORMAL LATE: 0 MISSED OPPORTUNITY: 0 UNCOVERED: 0
ITLB PREFETCHES SAME FILL-ORIGIN LEVEL: 0 DIFFERENT FILL-ORIGIN LEVEL: 0
ITLB AVERAGE MISS LATENCY: -nan cycles
ITLB AVERAGE MISS LATENCY LOAD: -nan cycles
ITLB AVERAGE MISS LATENCY PREFETCH: -nan cycles
ITLB AVERAGE MSHR OCCUPANCY: 0
ITLB MSHR FULL: 0
ITLB RQ	ACCESS:   34853447	FORWARD:          0	MERGED:    6114744	TO_CACHE:   28738703

DTLB SPEC fills:          0  NON-SPEC fills:          0
DTLB Test counter :          0
DTLB Leapfrog:          0
DTLB MSHR merge:          0
DTLB TOTAL     ACCESS:   61925906  HIT:   54350398  MISS:    7575508  HIT %:    87.7668  MISS %:    12.2332   MPKI: 37.8775
DTLB LOAD TRANSLATION NON_SPEC    ACCESS:   61925906  HIT:   54350398  MISS:    7575508  HIT %:    87.7668  MISS %:    12.2332   MPKI: 37.8775
DTLB PREFETCH  REQUESTED:          0  ISSUED:          0  USEFUL:          0  USELESS:          0
DTLB USEFUL LOAD PREFETCHES:          0 PREFETCH ISSUED TO LOWER LEVEL:          0  ACCURACY: -nan
DTLB TIMELY PREFETCHES:          0 LATE PREFETCHES: 0 DROPPED PREFETCHES: 0
DTLB COMMIT LATE PREFETCHES: 0 NORMAL LATE: 0 MISSED OPPORTUNITY: 0 UNCOVERED: 0
DTLB PREFETCHES SAME FILL-ORIGIN LEVEL: 0 DIFFERENT FILL-ORIGIN LEVEL: 0
DTLB AVERAGE MISS LATENCY: 10.0505 cycles
DTLB AVERAGE MISS LATENCY LOAD: -nan cycles
DTLB AVERAGE MISS LATENCY PREFETCH: -nan cycles
DTLB AVERAGE MSHR OCCUPANCY: 0.782481
DTLB MSHR FULL: 0.0213562
DTLB RQ	ACCESS:   82889912	FORWARD:          0	MERGED:   20000883	TO_CACHE:   62889029

STLB SPEC fills:          0  NON-SPEC fills:          0
STLB Test counter :          0
STLB Leapfrog:          0
STLB MSHR merge:          0
STLB TOTAL     ACCESS:    7575511  HIT:    7567216  MISS:       8295  HIT %:    99.8905  MISS %:   0.109498   MPKI: 0.041475
STLB LOAD TRANSLATION NON_SPEC    ACCESS:    7575508  HIT:    7567213  MISS:       8295  HIT %:    99.8905  MISS %:   0.109498   MPKI: 0.041475
STLB TRANSLATION FROM L1D PREFETCHER NON_SPEC    ACCESS:          3  HIT:          3  MISS:          0  HIT %:        100  MISS %:          0   MPKI: 0
STLB PREFETCH  REQUESTED:          0  ISSUED:          0  USEFUL:          0  USELESS:          0
STLB USEFUL LOAD PREFETCHES:          0 PREFETCH ISSUED TO LOWER LEVEL:          0  ACCURACY: -nan
STLB TIMELY PREFETCHES:          0 LATE PREFETCHES: 0 DROPPED PREFETCHES: 0
STLB COMMIT LATE PREFETCHES: 0 NORMAL LATE: 0 MISSED OPPORTUNITY: 0 UNCOVERED: 0
STLB PREFETCHES SAME FILL-ORIGIN LEVEL: 0 DIFFERENT FILL-ORIGIN LEVEL: 0
STLB AVERAGE MISS LATENCY: 638.447 cycles
STLB AVERAGE MISS LATENCY LOAD: -nan cycles
STLB AVERAGE MISS LATENCY PREFETCH: -nan cycles
STLB AVERAGE MSHR OCCUPANCY: 0.00996751
STLB MSHR FULL: 0
STLB RQ	ACCESS:    7575515	FORWARD:          0	MERGED:          4	TO_CACHE:    7575511

STLB Hit, L1D data hit: 0
STLB Hit, L2C data hit: 0
STLB Hit, LLC data hit: 0
STLB Hit, LLC data miss: 0
STLB STLB hints to L2: 0
L0D SPEC fills:   46390282  NON-SPEC fills:          0
L0D TimeGuard Request with older TS:    2873468 Restricted eviction:    2954659 read:    2814203
L0D Test counter :          0
L0D Leapfrog:          0
L0D MSHR merge:    2754154
L0D TOTAL     ACCESS:   64119493  HIT:    8777228  MISS:   55342265  HIT %:    13.6889  MISS %:    86.3111   MPKI: 276.711
L0D LOAD      TOTAL       ACCESS:   64119493  HIT:    8777228  MISS:   55342265  HIT %:    13.6889  MISS %:    86.3111   MPKI: 276.711
L0D LOAD      NON_SPEC    ACCESS:    6347061  HIT:     349131  MISS:    5997930  HIT %:    5.50067  MISS %:    94.4993   MPKI: 29.9897
L0D LOAD      SPEC        ACCESS:   57772432  HIT:    8428097  MISS:   49344335  HIT %:    14.5884  MISS %:    85.4116   MPKI: 246.722
L0D PREFETCH  REQUESTED:          0  ISSUED:          0  USEFUL:          0  USELESS:          0
L0D USEFUL LOAD PREFETCHES:          0 PREFETCH ISSUED TO LOWER LEVEL:          0  ACCURACY: -nan
L0D TIMELY PREFETCHES:          0 LATE PREFETCHES: 0 DROPPED PREFETCHES: 0
L0D COMMIT LATE PREFETCHES: 0 NORMAL LATE: 0 MISSED OPPORTUNITY: 0 UNCOVERED: 55342265
L0D PREFETCHES SAME FILL-ORIGIN LEVEL: 0 DIFFERENT FILL-ORIGIN LEVEL: 0
L0D AVERAGE MISS LATENCY: 15.5281 cycles
L0D AVERAGE MISS LATENCY LOAD: 15.5281 cycles
L0D AVERAGE MISS LATENCY PREFETCH: -nan cycles
L0D AVERAGE MSHR OCCUPANCY: 5.35887
L0D MSHR FULL: 0.457987
L0D RQ	ACCESS:   77325778	FORWARD:          0	MERGED:   10452143	TO_CACHE:   66873635
L0D WQ	ACCESS:   16016277	FORWARD:          0	MERGED:          0	TO_CACHE:   16016277

L1D SPEC fills:          0  NON-SPEC fills:     618004
L1D Test counter :          0
L1D Leapfrog:          0
L1D MSHR merge:      96337
L1D TOTAL     ACCESS:  133339918  HIT:  104439666  MISS:   28900252  HIT %:    78.3259  MISS %:    21.6741   MPKI: 144.501
L1D LOAD      TOTAL       ACCESS:   55245928  HIT:   40822325  MISS:   14423603  HIT %:     73.892  MISS %:     26.108   MPKI: 72.118
L1D LOAD      NON_SPEC    ACCESS:    5981328  HIT:    5363324  MISS:     618004  HIT %:    89.6678  MISS %:    10.3322   MPKI: 3.09002
L1D LOAD      SPEC        ACCESS:   49264600  HIT:   35459001  MISS:   13805599  HIT %:    71.9766  MISS %:    28.0234   MPKI: 69.028
L1D RFO       NON_SPEC    ACCESS:   14666684  HIT:   13461767  MISS:    1204917  HIT %:    91.7847  MISS %:    8.21533   MPKI: 6.02459
L1D PREFETCH  NON_SPEC    ACCESS:          5  HIT:          3  MISS:          2  HIT %:         60  MISS %:         40   MPKI: 1e-05
L1D COMMIT LOAD NON_SPEC    ACCESS:   19572604  HIT:   16762009  MISS:    2810595  HIT %:    85.6402  MISS %:    14.3598   MPKI: 14.053
L1D COMMIT WRITE NON_SPEC    ACCESS:   43854697  HIT:   33393562  MISS:   10461135  HIT %:    76.1459  MISS %:    23.8541   MPKI: 52.3057
L1D PREFETCH  REQUESTED:         12  ISSUED:         12  USEFUL:          0  USELESS:          2
L1D USEFUL LOAD PREFETCHES:          0 PREFETCH ISSUED TO LOWER LEVEL:          2  ACCURACY: 0
L1D TIMELY PREFETCHES:          0 LATE PREFETCHES: 0 DROPPED PREFETCHES: 0
L1D COMMIT LATE PREFETCHES: 0 NORMAL LATE: 0 MISSED OPPORTUNITY: 0 UNCOVERED: 14423603
L1D PREFETCHES SAME FILL-ORIGIN LEVEL: 2 DIFFERENT FILL-ORIGIN LEVEL: 0
L1D AVERAGE MISS LATENCY: 14.6371 cycles
L1D AVERAGE MISS LATENCY LOAD: 17.969 cycles
L1D AVERAGE MISS LATENCY PREFETCH: 215 cycles
L1D AVERAGE MSHR OCCUPANCY: 3.05499
L1D MSHR FULL: 0.100786
L1D RQ	ACCESS:   82376684	FORWARD:          0	MERGED:    7280750	TO_CACHE:   75091162
L1D WQ	ACCESS:   59870982	FORWARD:       4772	MERGED:    1194990	TO_CACHE:   58675992
L1D PQ	ACCESS:         12	FORWARD:          0	MERGED:          5	TO_CACHE:          7

L1D UNIQUE REGIONS ACCESSED: 0
L1D REGIONS CONFLICTS: 0
L1D Cross Page Prefetch Requests: 0
L1D Same Page Prefetch Requests: 15
L1D ROI Sum of L1D PQ occupancy: 95
L1D PREFETCHES PUSHED FROM L2C: 0
L1I SPEC fills:          0  NON-SPEC fills:          0
L1I Test counter :          0
L1I Leapfrog:          0
L1I MSHR merge:    2852894
L1I TOTAL     ACCESS:   32000551  HIT:   26216122  MISS:    5784429  HIT %:     81.924  MISS %:     18.076   MPKI: 28.9221
L1I LOAD      TOTAL       ACCESS:   32000551  HIT:   26216122  MISS:    5784429  HIT %:     81.924  MISS %:     18.076   MPKI: 28.9221
L1I LOAD      NON_SPEC    ACCESS:   32000551  HIT:   26216122  MISS:    5784429  HIT %:     81.924  MISS %:     18.076   MPKI: 28.9221
L1I PREFETCH  REQUESTED:          0  ISSUED:          0  USEFUL:          0  USELESS:          0
L1I USEFUL LOAD PREFETCHES:          0 PREFETCH ISSUED TO LOWER LEVEL:          0  ACCURACY: -nan
L1I TIMELY PREFETCHES:          0 LATE PREFETCHES: 0 DROPPED PREFETCHES: 0
L1I COMMIT LATE PREFETCHES: 0 NORMAL LATE: 0 MISSED OPPORTUNITY: 0 UNCOVERED: 5784429
L1I PREFETCHES SAME FILL-ORIGIN LEVEL: 0 DIFFERENT FILL-ORIGIN LEVEL: 0
L1I AVERAGE MISS LATENCY: 14.04 cycles
L1I AVERAGE MISS LATENCY LOAD: 14.04 cycles
L1I AVERAGE MISS LATENCY PREFETCH: -nan cycles
L1I AVERAGE MSHR OCCUPANCY: 0.218123
L1I MSHR FULL: 0
L1I RQ	ACCESS:   49698446	FORWARD:          0	MERGED:   14844999	TO_CACHE:   34853447

BTB SPEC fills:          0  NON-SPEC fills:          0
BTB Test counter :          0
BTB Leapfrog:          0
BTB MSHR merge:          0
BTB TOTAL     ACCESS:    1169485  HIT:    1096958  MISS:      72527  HIT %:    93.7984  MISS %:    6.20162   MPKI: 0.362635
BTB BRANCH_DIRECT_JUMP	ACCESS:     217104  HIT:     217073  MISS:         31
BTB BRANCH_INDIRECT	ACCESS:      36158  HIT:      36156  MISS:          2
BTB BRANCH_CONDITIONAL	ACCESS:     482257  HIT:     482171  MISS:         86
BTB BRANCH_DIRECT_CALL	ACCESS:     216983  HIT:     216939  MISS:         44
BTB BRANCH_INDIRECT_CALL	ACCESS:          0  HIT:          0  MISS:          0
BTB BRANCH_RETURN	ACCESS:     216983  HIT:     144619  MISS:      72364
BTB BRANCH_OTHER ACCESS:          0  HIT:          0  MISS:          0

L2C SPEC fills:          0  NON-SPEC fills:      44261
L2C Test counter :          0
L2C Leapfrog:          0
L2C MSHR merge:          0
L2C TOTAL     ACCESS:   36282632  HIT:   34336229  MISS:    1946403  HIT %:    94.6354  MISS %:    5.36456   MPKI: 9.73202
L2C LOAD      TOTAL       ACCESS:   20201374  HIT:   19276384  MISS:     924990  HIT %:    95.4212  MISS %:    4.57885   MPKI: 4.62495
L2C LOAD      NON_SPEC    ACCESS:    6402347  HIT:    6357707  MISS:      44640  HIT %:    99.3028  MISS %:   0.697244   MPKI: 0.2232
L2C LOAD      SPEC        ACCESS:   13799027  HIT:   12918677  MISS:     880350  HIT %:    93.6202  MISS %:     6.3798   MPKI: 4.40175
L2C RFO       NON_SPEC    ACCESS:    1202559  HIT:    1085473  MISS:     117086  HIT %:    90.2636  MISS %:     9.7364   MPKI: 0.58543
L2C PREFETCH  NON_SPEC    ACCESS:          2  HIT:          0  MISS:          2  HIT %:          0  MISS %:        100   MPKI: 1e-05
L2C WRITEBACK NON_SPEC    ACCESS:    1215246  HIT:    1215168  MISS:         78  HIT %:    99.9936  MISS %: 0.00641845   MPKI: 0.00039
L2C CLEAN_EVICTION NON_SPEC    ACCESS:   10815492  HIT:   10083235  MISS:     732257  HIT %:    93.2296  MISS %:    6.77045   MPKI: 3.66128
L2C COMMIT LOAD NON_SPEC    ACCESS:    2806493  HIT:    2646128  MISS:     160365  HIT %:    94.2859  MISS %:    5.71407   MPKI: 0.801825
L2C LOAD TRANSLATION NON_SPEC    ACCESS:      41466  HIT:      29841  MISS:      11625  HIT %:     71.965  MISS %:     28.035   MPKI: 0.058125
L2C PREFETCH  REQUESTED:          0  ISSUED:          0  USEFUL:          0  USELESS:          2
L2C USEFUL LOAD PREFETCHES:          0 PREFETCH ISSUED TO LOWER LEVEL:          2  ACCURACY: 0
L2C TIMELY PREFETCHES:          0 LATE PREFETCHES: 0 DROPPED PREFETCHES: 0
L2C COMMIT LATE PREFETCHES: 0 NORMAL LATE: 0 MISSED OPPORTUNITY: 0 UNCOVERED: 924990
L2C PREFETCHES SAME FILL-ORIGIN LEVEL: 0 DIFFERENT FILL-ORIGIN LEVEL: 0
L2C AVERAGE MISS LATENCY: 96.9412 cycles
L2C AVERAGE MISS LATENCY LOAD: 93.481 cycles
L2C AVERAGE MISS LATENCY PREFETCH: 200 cycles
L2C AVERAGE MSHR OCCUPANCY: 0.583913
L2C MSHR FULL: 0
L2C RQ	ACCESS:   24265012	FORWARD:          0	MERGED:          0	TO_CACHE:   24251892
L2C WQ	ACCESS:   12037956	FORWARD:      13120	MERGED:       7218	TO_CACHE:   12030738
L2C PQ	ACCESS:          2	FORWARD:          0	MERGED:          0	TO_CACHE:          2

L2C Instructions Evicting Data 371
L2C Translations Evicting Data 11495
L2C Data Evicting Data 317891
L2C Instructions Evicting Instructions 0
L2C Translations Evicting Instructions 4
L2C Data Evicting Instructions 100
L2C Instructions Evicting Translations 8
L2C Translations Evicting Translations 126
L2C Data Evicting Translations 3723
L2C Dense regions hint from L2: 0
PSCL5 SPEC fills:          0  NON-SPEC fills:          0
PSCL5 Test counter :          0
PSCL5 Leapfrog:          0
PSCL5 MSHR merge:          0
PSCL5 TOTAL     ACCESS:          0  HIT:          0  MISS:          0  HIT %:       -nan  MISS %:       -nan   MPKI: 0
PSCL5 PREFETCH  REQUESTED:          0  ISSUED:          0  USEFUL:          0  USELESS:          0
PSCL5 USEFUL LOAD PREFETCHES:          0 PREFETCH ISSUED TO LOWER LEVEL:          0  ACCURACY: -nan
PSCL5 TIMELY PREFETCHES:          0 LATE PREFETCHES: 0 DROPPED PREFETCHES: 0
PSCL5 COMMIT LATE PREFETCHES: 0 NORMAL LATE: 0 MISSED OPPORTUNITY: 0 UNCOVERED: 0
PSCL5 PREFETCHES SAME FILL-ORIGIN LEVEL: 0 DIFFERENT FILL-ORIGIN LEVEL: 0

PSCL4 SPEC fills:          0  NON-SPEC fills:          0
PSCL4 Test counter :          0
PSCL4 Leapfrog:          0
PSCL4 MSHR merge:          0
PSCL4 TOTAL     ACCESS:          0  HIT:          0  MISS:          0  HIT %:       -nan  MISS %:       -nan   MPKI: 0
PSCL4 PREFETCH  REQUESTED:          0  ISSUED:          0  USEFUL:          0  USELESS:          0
PSCL4 USEFUL LOAD PREFETCHES:          0 PREFETCH ISSUED TO LOWER LEVEL:          0  ACCURACY: -nan
PSCL4 TIMELY PREFETCHES:          0 LATE PREFETCHES: 0 DROPPED PREFETCHES: 0
PSCL4 COMMIT LATE PREFETCHES: 0 NORMAL LATE: 0 MISSED OPPORTUNITY: 0 UNCOVERED: 0
PSCL4 PREFETCHES SAME FILL-ORIGIN LEVEL: 0 DIFFERENT FILL-ORIGIN LEVEL: 0

PSCL3 SPEC fills:          0  NON-SPEC fills:          0
PSCL3 Test counter :          0
PSCL3 Leapfrog:          0
PSCL3 MSHR merge:          0
PSCL3 TOTAL     ACCESS:          0  HIT:          0  MISS:          0  HIT %:       -nan  MISS %:       -nan   MPKI: 0
PSCL3 PREFETCH  REQUESTED:          0  ISSUED:          0  USEFUL:          0  USELESS:          0
PSCL3 USEFUL LOAD PREFETCHES:          0 PREFETCH ISSUED TO LOWER LEVEL:          0  ACCURACY: -nan
PSCL3 TIMELY PREFETCHES:          0 LATE PREFETCHES: 0 DROPPED PREFETCHES: 0
PSCL3 COMMIT LATE PREFETCHES: 0 NORMAL LATE: 0 MISSED OPPORTUNITY: 0 UNCOVERED: 0
PSCL3 PREFETCHES SAME FILL-ORIGIN LEVEL: 0 DIFFERENT FILL-ORIGIN LEVEL: 0

PSCL2 SPEC fills:          0  NON-SPEC fills:          0
PSCL2 Test counter :          0
PSCL2 Leapfrog:          0
PSCL2 MSHR merge:          0
PSCL2 TOTAL     ACCESS:          0  HIT:          0  MISS:          0  HIT %:       -nan  MISS %:       -nan   MPKI: 0
PSCL2 PREFETCH  REQUESTED:          0  ISSUED:          0  USEFUL:          0  USELESS:          0
PSCL2 USEFUL LOAD PREFETCHES:          0 PREFETCH ISSUED TO LOWER LEVEL:          0  ACCURACY: -nan
PSCL2 TIMELY PREFETCHES:          0 LATE PREFETCHES: 0 DROPPED PREFETCHES: 0
PSCL2 COMMIT LATE PREFETCHES: 0 NORMAL LATE: 0 MISSED OPPORTUNITY: 0 UNCOVERED: 0
PSCL2 PREFETCHES SAME FILL-ORIGIN LEVEL: 0 DIFFERENT FILL-ORIGIN LEVEL: 0

LLC SPEC fills:          0  NON-SPEC fills:      10029
LLC Test counter :          0
LLC Leapfrog:          0
LLC MSHR merge:          0
LLC TOTAL     ACCESS:    2259960  HIT:    1335022  MISS:     924938  HIT %:    59.0728  MISS %:    40.9272   MPKI: 4.62469
LLC LOAD      TOTAL       ACCESS:     924500  HIT:     516114  MISS:     408386  HIT %:    55.8263  MISS %:    44.1737   MPKI: 2.04193
LLC LOAD      NON_SPEC    ACCESS:      44630  HIT:      34222  MISS:      10408  HIT %:    76.6794  MISS %:    23.3206   MPKI: 0.05204
LLC LOAD      SPEC        ACCESS:     879870  HIT:     481892  MISS:     397978  HIT %:    54.7685  MISS %:    45.2315   MPKI: 1.98989
LLC RFO       NON_SPEC    ACCESS:     117086  HIT:          0  MISS:     117086  HIT %:          0  MISS %:        100   MPKI: 0.58543
LLC PREFETCH  NON_SPEC    ACCESS:          2  HIT:          0  MISS:          2  HIT %:          0  MISS %:        100   MPKI: 1e-05
LLC WRITEBACK NON_SPEC    ACCESS:     117108  HIT:     117083  MISS:         25  HIT %:    99.9787  MISS %:  0.0213478   MPKI: 0.000125
LLC CLEAN_EVICTION NON_SPEC    ACCESS:     929534  HIT:     592379  MISS:     337155  HIT %:    63.7286  MISS %:    36.2714   MPKI: 1.68578
LLC COMMIT LOAD NON_SPEC    ACCESS:     160105  HIT:      98957  MISS:      61148  HIT %:    61.8076  MISS %:    38.1924   MPKI: 0.30574
LLC LOAD TRANSLATION NON_SPEC    ACCESS:      11625  HIT:      10489  MISS:       1136  HIT %:     90.228  MISS %:    9.77204   MPKI: 0.00568
LLC PREFETCH  REQUESTED:          0  ISSUED:          0  USEFUL:          0  USELESS:          2
LLC USEFUL LOAD PREFETCHES:          0 PREFETCH ISSUED TO LOWER LEVEL:          2  ACCURACY: 0
LLC TIMELY PREFETCHES:          0 LATE PREFETCHES: 0 DROPPED PREFETCHES: 0
LLC COMMIT LATE PREFETCHES: 0 NORMAL LATE: 0 MISSED OPPORTUNITY: 0 UNCOVERED: 408386
LLC PREFETCHES SAME FILL-ORIGIN LEVEL: 0 DIFFERENT FILL-ORIGIN LEVEL: 0
LLC AVERAGE MISS LATENCY: 172.938 cycles
LLC AVERAGE MISS LATENCY LOAD: 162.665 cycles
LLC AVERAGE MISS LATENCY PREFETCH: 170 cycles
LLC AVERAGE MSHR OCCUPANCY: 2.0375
LLC MSHR FULL: 0
LLC RQ	ACCESS:    1214066	FORWARD:          0	MERGED:          0	TO_CACHE:    1213316
LLC WQ	ACCESS:    1046642	FORWARD:        750	MERGED:          0	TO_CACHE:    1046642
LLC PQ	ACCESS:          2	FORWARD:          0	MERGED:          0	TO_CACHE:          2

LLC Dense regions hint to LLC: 0

RAW hits: 509885
Loads Generated: 77835663
Loads sent to L1D: 77325778
Stores Generated: 16016275
Stores sent to L1D: 16016277
Major fault: 0 Minor fault: 8463
Allocated PAGES: 8463
Total Load insts: 137139387
Total Non-spec loads: 9060505
Percentage of speculative loads: 93.3932

LeapFrogging counter: 33412291
Commit hits: 43854706 miss: 27034423
Commit hit %: 61.8638 miss %: 38.1362
Commits not translated: 0
Loads retired: 14423603
Stores retired: 16016277
Cache fills: 14423603
L1D response latency: 17.969 cycles
Load retirement latency: 211.065 cycles
OOO test counter: 0
Discarded buffer inserts: 43854706 hits: 882100 hit %: 2.01141
Filter prediction accuracy: -nan
Speculative prefetch buffer size: 0
CPU 0 L1D PC-based stride prefetcher final stats
Degree: 3

DRAM Statistics
 CHANNEL 0
 RQ ROW_BUFFER_HIT:     336316  ROW_BUFFER_MISS:     251442
 DBUS_CONGESTED:        704
 WQ ROW_BUFFER_HIT:     141391  ROW_BUFFER_MISS:     379159  FULL:          0

 AVG_CONGESTED_CYCLE: 5
 All warmup complete: 2
Channel 0 Bank busy for read cycles: 0
Channel 0 Bank busy for write cycles: 0
Channel 0
Rank 0
0banks busy for read cycles: 264394104
0banks busy for write cycles: 272298
1banks busy for read cycles: 28496908
1banks busy for write cycles: 32414261
2banks busy for read cycles: 6179407
2banks busy for write cycles: 10221215
3banks busy for read cycles: 2738369
3banks busy for write cycles: 3484318
4banks busy for read cycles: 833936
4banks busy for write cycles: 1043030
5banks busy for read cycles: 349578
5banks busy for write cycles: 360600
6banks busy for read cycles: 60467
6banks busy for write cycles: 194361
7banks busy for read cycles: 2648
7banks busy for write cycles: 67301
8banks busy for read cycles: 0
8banks busy for write cycles: 20085

CPU 0 Branch Prediction Accuracy: 99.9869% MPKI: 0.001165 Average ROB Occupancy at Mispredict: 21.6824
Branch types
NOT_BRANCH: 198225688 99.1128%
BRANCH_DIRECT_JUMP: 217104 0.108552%
BRANCH_INDIRECT: 36158 0.018079%
BRANCH_CONDITIONAL: 1086728 0.543364%
BRANCH_DIRECT_CALL: 216983 0.108492%
BRANCH_INDIRECT_CALL: 0 0%
BRANCH_RETURN: 216983 0.108492%
BRANCH_OTHER: 0 0%

DRAM PAGES: 1048576
Allocated PAGES: 8463
