
*** ChampSim Multicore Out-of-Order Simulator ***

Warmup Instructions: 50000000
Simulation Instructions: 200000000
Number of CPUs: 1
LLC sets: 2048
LLC ways: 16
L0D sets: 16
L0D ways: 2
ROB size: 352
LQ size: 128
SQ size: 72
Secure Berti: OFF
Berti: OFF
Berti Fill: OFF
On commit prefetching: OFF
Hit-based filter: OFF
Time-guarding: ON
Free-slotting: ON
Leap-frogging: ON
Train prefetcher on L0D bypass: OFF
No translation penalty for prefetchers: OFF
Prefetch to L0D only: OFF
Prefetch to L1D only: OFF
Clean evictions: ON
Commit loads: ON
Commit write: ON
Fill commit loads to L2C, LLC: ON
DRAM IO FREQUENCY: 6400
ROB SIZE: 352
Off-chip DRAM Size: 4096 MB Channels: 1 Width: 64-bit Data Rate: 6400 MT/s
CPU 0 runs /home/sumon/secure_berti/GhostMinion/../../traces/spec/619.lbm_s-3766B.champsimtrace.xz
.xz
BTB has LRU replacement policy
ITLB has LRU replacement policy
DTLB has LRU replacement policy
STLB has LRU replacement policy
L1I has LRU replacement policy
L0D has LRU replacement policy
CPU 0 L1D IP-based stride prefetcher
L1D has LRU replacement policy
L2C has LRU replacement policy
LLC has LRU replacement policy
Heartbeat CPU 0 instructions: 10000000 cycles: 2863513 heartbeat IPC: 3.49221 cumulative IPC: 3.49221 (Simulation time: 0 hr 0 min 32 sec) 
Heartbeat CPU 0 instructions: 20000002 cycles: 5729862 heartbeat IPC: 3.48876 cumulative IPC: 3.49049 (Simulation time: 0 hr 1 min 11 sec) 
Heartbeat CPU 0 instructions: 30000000 cycles: 8593295 heartbeat IPC: 3.49231 cumulative IPC: 3.49109 (Simulation time: 0 hr 1 min 55 sec) 
Heartbeat CPU 0 instructions: 40000003 cycles: 11459763 heartbeat IPC: 3.48861 cumulative IPC: 3.49047 (Simulation time: 0 hr 2 min 30 sec) 
Heartbeat CPU 0 instructions: 50000000 cycles: 14326025 heartbeat IPC: 3.48886 cumulative IPC: 3.49015 (Simulation time: 0 hr 3 min 5 sec) 

Warmup complete CPU 0 instructions: 50000004 cycles: 14326026 (Simulation time: 0 hr 3 min 5 sec) 

Heartbeat CPU 0 instructions: 60000000 cycles: 27024947 heartbeat IPC: 0.787468 cumulative IPC: 0.787468 (Simulation time: 0 hr 3 min 55 sec) 
Heartbeat CPU 0 instructions: 70000001 cycles: 39731318 heartbeat IPC: 0.787007 cumulative IPC: 0.787237 (Simulation time: 0 hr 4 min 45 sec) 
Heartbeat CPU 0 instructions: 80000001 cycles: 52353553 heartbeat IPC: 0.792253 cumulative IPC: 0.788902 (Simulation time: 0 hr 5 min 35 sec) 
Heartbeat CPU 0 instructions: 90000001 cycles: 64890863 heartbeat IPC: 0.797619 cumulative IPC: 0.791063 (Simulation time: 0 hr 6 min 28 sec) 
Heartbeat CPU 0 instructions: 100000000 cycles: 77586646 heartbeat IPC: 0.787663 cumulative IPC: 0.790381 (Simulation time: 0 hr 7 min 21 sec) 
Heartbeat CPU 0 instructions: 110000000 cycles: 90738288 heartbeat IPC: 0.760361 cumulative IPC: 0.785214 (Simulation time: 0 hr 8 min 14 sec) 
Heartbeat CPU 0 instructions: 120000003 cycles: 104154240 heartbeat IPC: 0.745382 cumulative IPC: 0.779265 (Simulation time: 0 hr 9 min 9 sec) 
Heartbeat CPU 0 instructions: 130000000 cycles: 120777572 heartbeat IPC: 0.601564 cumulative IPC: 0.751516 (Simulation time: 0 hr 10 min 11 sec) 
Heartbeat CPU 0 instructions: 140000002 cycles: 139430724 heartbeat IPC: 0.536103 cumulative IPC: 0.719397 (Simulation time: 0 hr 11 min 18 sec) 
Heartbeat CPU 0 instructions: 150000002 cycles: 161310346 heartbeat IPC: 0.457046 cumulative IPC: 0.680345 (Simulation time: 0 hr 12 min 31 sec) 
Heartbeat CPU 0 instructions: 160000003 cycles: 188546477 heartbeat IPC: 0.367159 cumulative IPC: 0.631384 (Simulation time: 0 hr 13 min 56 sec) 
Heartbeat CPU 0 instructions: 170000000 cycles: 221793754 heartbeat IPC: 0.300776 cumulative IPC: 0.578403 (Simulation time: 0 hr 15 min 52 sec) 
Heartbeat CPU 0 instructions: 180000003 cycles: 257526466 heartbeat IPC: 0.279856 cumulative IPC: 0.534539 (Simulation time: 0 hr 17 min 14 sec) 
Heartbeat CPU 0 instructions: 190000003 cycles: 295311173 heartbeat IPC: 0.264657 cumulative IPC: 0.498247 (Simulation time: 0 hr 18 min 40 sec) 
Heartbeat CPU 0 instructions: 200000003 cycles: 329649672 heartbeat IPC: 0.291218 cumulative IPC: 0.475702 (Simulation time: 0 hr 19 min 59 sec) 
Heartbeat CPU 0 instructions: 210000003 cycles: 361913379 heartbeat IPC: 0.309946 cumulative IPC: 0.460316 (Simulation time: 0 hr 21 min 14 sec) 
Heartbeat CPU 0 instructions: 220000000 cycles: 391004513 heartbeat IPC: 0.343747 cumulative IPC: 0.451313 (Simulation time: 0 hr 22 min 22 sec) 
Heartbeat CPU 0 instructions: 230000000 cycles: 419822681 heartbeat IPC: 0.347003 cumulative IPC: 0.4439 (Simulation time: 0 hr 23 min 31 sec) 
Heartbeat CPU 0 instructions: 240000000 cycles: 447271529 heartbeat IPC: 0.364314 cumulative IPC: 0.438854 (Simulation time: 0 hr 24 min 35 sec) 
Heartbeat CPU 0 instructions: 250000000 cycles: 474976996 heartbeat IPC: 0.36094 cumulative IPC: 0.434168 (Simulation time: 0 hr 25 min 37 sec) 
Finished CPU 0 instructions: 200000000 cycles: 460650971 cumulative IPC: 0.434168 (Simulation time: 0 hr 25 min 37 sec) 
 Instruction ID: 250000075

ChampSim completed all CPUs

Region of Interest Statistics

CPU 0 cumulative IPC: 0.434168 instructions: 200000000 cycles: 460650971
ITLB SPEC fills:          0  NON-SPEC fills:          0
ITLB Test counter :          0
ITLB Leapfrog:          0
ITLB MSHR merge:          0
ITLB TOTAL     ACCESS:   26578047  HIT:   26578047  MISS:          0  HIT %:        100  MISS %:          0   MPKI: 0
ITLB LOAD TRANSLATION NON_SPEC    ACCESS:   26578047  HIT:   26578047  MISS:          0  HIT %:        100  MISS %:          0   MPKI: 0
ITLB PREFETCH  REQUESTED:          0  ISSUED:          0  USEFUL:          0  USELESS:          0
ITLB USEFUL LOAD PREFETCHES:          0 PREFETCH ISSUED TO LOWER LEVEL:          0  ACCURACY: -nan
ITLB TIMELY PREFETCHES:          0 LATE PREFETCHES: 0 DROPPED PREFETCHES: 0
ITLB COMMIT LATE PREFETCHES: 0 NORMAL LATE: 0 MISSED OPPORTUNITY: 0 UNCOVERED: 0
ITLB PREFETCHES SAME FILL-ORIGIN LEVEL: 0 DIFFERENT FILL-ORIGIN LEVEL: 0
ITLB AVERAGE MISS LATENCY: -nan cycles
ITLB AVERAGE MISS LATENCY LOAD: -nan cycles
ITLB AVERAGE MISS LATENCY PREFETCH: -nan cycles
ITLB AVERAGE MSHR OCCUPANCY: 0
ITLB MSHR FULL: 0
ITLB RQ	ACCESS:   34520985	FORWARD:          0	MERGED:    7942938	TO_CACHE:   26578047

DTLB SPEC fills:          0  NON-SPEC fills:          0
DTLB Test counter :          0
DTLB Leapfrog:          0
DTLB MSHR merge:          0
DTLB TOTAL     ACCESS:   40727768  HIT:   40502055  MISS:     225713  HIT %:    99.4458  MISS %:   0.554199   MPKI: 1.12857
DTLB LOAD TRANSLATION NON_SPEC    ACCESS:   40727768  HIT:   40502055  MISS:     225713  HIT %:    99.4458  MISS %:   0.554199   MPKI: 1.12857
DTLB PREFETCH  REQUESTED:          0  ISSUED:          0  USEFUL:          0  USELESS:          0
DTLB USEFUL LOAD PREFETCHES:          0 PREFETCH ISSUED TO LOWER LEVEL:          0  ACCURACY: -nan
DTLB TIMELY PREFETCHES:          0 LATE PREFETCHES: 0 DROPPED PREFETCHES: 0
DTLB COMMIT LATE PREFETCHES: 0 NORMAL LATE: 0 MISSED OPPORTUNITY: 0 UNCOVERED: 0
DTLB PREFETCHES SAME FILL-ORIGIN LEVEL: 0 DIFFERENT FILL-ORIGIN LEVEL: 0
DTLB AVERAGE MISS LATENCY: 134.885 cycles
DTLB AVERAGE MISS LATENCY LOAD: -nan cycles
DTLB AVERAGE MISS LATENCY PREFETCH: -nan cycles
DTLB AVERAGE MSHR OCCUPANCY: 0.0817125
DTLB MSHR FULL: 0
DTLB RQ	ACCESS:   62354059	FORWARD:          0	MERGED:   21530525	TO_CACHE:   40823534

STLB SPEC fills:          0  NON-SPEC fills:          0
STLB Test counter :          0
STLB Leapfrog:          0
STLB MSHR merge:          0
STLB TOTAL     ACCESS:    1309865  HIT:    1187395  MISS:     122470  HIT %:    90.6502  MISS %:    9.34982   MPKI: 0.61235
STLB LOAD TRANSLATION NON_SPEC    ACCESS:     225713  HIT:     103243  MISS:     122470  HIT %:    45.7408  MISS %:    54.2592   MPKI: 0.61235
STLB TRANSLATION FROM L1D PREFETCHER NON_SPEC    ACCESS:    1084152  HIT:    1084152  MISS:          0  HIT %:        100  MISS %:          0   MPKI: 0
STLB PREFETCH  REQUESTED:          0  ISSUED:          0  USEFUL:          0  USELESS:          0
STLB USEFUL LOAD PREFETCHES:          0 PREFETCH ISSUED TO LOWER LEVEL:          0  ACCURACY: -nan
STLB TIMELY PREFETCHES:          0 LATE PREFETCHES: 0 DROPPED PREFETCHES: 0
STLB COMMIT LATE PREFETCHES: 0 NORMAL LATE: 0 MISSED OPPORTUNITY: 0 UNCOVERED: 0
STLB PREFETCHES SAME FILL-ORIGIN LEVEL: 0 DIFFERENT FILL-ORIGIN LEVEL: 0
STLB AVERAGE MISS LATENCY: 231.972 cycles
STLB AVERAGE MISS LATENCY LOAD: -nan cycles
STLB AVERAGE MISS LATENCY PREFETCH: -nan cycles
STLB AVERAGE MSHR OCCUPANCY: 0.0854783
STLB MSHR FULL: 0
STLB RQ	ACCESS:    3498765	FORWARD:          0	MERGED:    2188900	TO_CACHE:    1309865

STLB Hit, L1D data hit: 0
STLB Hit, L2C data hit: 0
STLB Hit, LLC data hit: 0
STLB Hit, LLC data miss: 0
STLB STLB hints to L2: 0
L0D SPEC fills:   15796016  NON-SPEC fills:          0
L0D TimeGuard Request with older TS:      70552 Restricted eviction:       9954 read:     797795
L0D Test counter :          0
L0D Leapfrog:          0
L0D MSHR merge:    3671569
L0D TOTAL     ACCESS:   24118632  HIT:    7014209  MISS:   17104423  HIT %:    29.0821  MISS %:    70.9179   MPKI: 85.5221
L0D LOAD      TOTAL       ACCESS:   24118632  HIT:    7014209  MISS:   17104423  HIT %:    29.0821  MISS %:    70.9179   MPKI: 85.5221
L0D LOAD      NON_SPEC    ACCESS:    2032107  HIT:     733654  MISS:    1298453  HIT %:    36.1031  MISS %:    63.8969   MPKI: 6.49226
L0D LOAD      SPEC        ACCESS:   22086525  HIT:    6280555  MISS:   15805970  HIT %:    28.4361  MISS %:    71.5639   MPKI: 79.0298
L0D PREFETCH  REQUESTED:          0  ISSUED:          0  USEFUL:          0  USELESS:          0
L0D USEFUL LOAD PREFETCHES:          0 PREFETCH ISSUED TO LOWER LEVEL:          0  ACCURACY: -nan
L0D TIMELY PREFETCHES:          0 LATE PREFETCHES: 0 DROPPED PREFETCHES: 0
L0D COMMIT LATE PREFETCHES: 0 NORMAL LATE: 0 MISSED OPPORTUNITY: 0 UNCOVERED: 17104423
L0D PREFETCHES SAME FILL-ORIGIN LEVEL: 0 DIFFERENT FILL-ORIGIN LEVEL: 0
L0D AVERAGE MISS LATENCY: 55.9244 cycles
L0D AVERAGE MISS LATENCY LOAD: 55.9244 cycles
L0D AVERAGE MISS LATENCY PREFETCH: -nan cycles
L0D AVERAGE MSHR OCCUPANCY: 1.56278
L0D MSHR FULL: 0.0623056
L0D RQ	ACCESS:   46308764	FORWARD:          0	MERGED:   18518565	TO_CACHE:   27790199
L0D WQ	ACCESS:   34563860	FORWARD:          0	MERGED:          0	TO_CACHE:   34563860

L1D SPEC fills:          0  NON-SPEC fills:     137256
L1D Test counter :          0
L1D Leapfrog:          0
L1D MSHR merge:      24215
L1D TOTAL     ACCESS:   79926489  HIT:   65463007  MISS:   14463482  HIT %:     81.904  MISS %:     18.096   MPKI: 72.3174
L1D LOAD      TOTAL       ACCESS:   17097770  HIT:   15558390  MISS:    1539380  HIT %:    90.9966  MISS %:     9.0034   MPKI: 7.6969
L1D LOAD      NON_SPEC    ACCESS:    1295930  HIT:    1158674  MISS:     137256  HIT %:    89.4087  MISS %:    10.5913   MPKI: 0.68628
L1D LOAD      SPEC        ACCESS:   15801840  HIT:   14399716  MISS:    1402124  HIT %:    91.1268  MISS %:    8.87317   MPKI: 7.01062
L1D RFO       NON_SPEC    ACCESS:   33447672  HIT:   22494541  MISS:   10953131  HIT %:    67.2529  MISS %:    32.7471   MPKI: 54.7657
L1D PREFETCH  NON_SPEC    ACCESS:    1482689  HIT:    1052531  MISS:     430158  HIT %:     70.988  MISS %:     29.012   MPKI: 2.15079
L1D COMMIT LOAD NON_SPEC    ACCESS:   12306541  HIT:   12128319  MISS:     178222  HIT %:    98.5518  MISS %:    1.44819   MPKI: 0.89111
L1D COMMIT WRITE NON_SPEC    ACCESS:   15591817  HIT:   14229226  MISS:    1362591  HIT %:    91.2609  MISS %:    8.73914   MPKI: 6.81295
L1D PREFETCH  REQUESTED:    3500618  ISSUED:    3500316  USEFUL:     430160  USELESS:          0
L1D USEFUL LOAD PREFETCHES:     430160 PREFETCH ISSUED TO LOWER LEVEL:    2055062  ACCURACY: 20.9317
L1D TIMELY PREFETCHES:     430160 LATE PREFETCHES: 17562 DROPPED PREFETCHES: 0
L1D COMMIT LATE PREFETCHES: 0 NORMAL LATE: 17562 MISSED OPPORTUNITY: 0 UNCOVERED: 1521818
L1D PREFETCHES SAME FILL-ORIGIN LEVEL: 447720 DIFFERENT FILL-ORIGIN LEVEL: 1607342
L1D AVERAGE MISS LATENCY: 284.128 cycles
L1D AVERAGE MISS LATENCY LOAD: 355.737 cycles
L1D AVERAGE MISS LATENCY PREFETCH: 171.198 cycles
L1D AVERAGE MSHR OCCUPANCY: 14.6808
L1D MSHR FULL: 0.854476
L1D RQ	ACCESS:   45386560	FORWARD:          0	MERGED:   15812268	TO_CACHE:   29412110
L1D WQ	ACCESS:   50240029	FORWARD:     162182	MERGED:    1049350	TO_CACHE:   49190679
L1D PQ	ACCESS:    3500316	FORWARD:          0	MERGED:     227264	TO_CACHE:    3273052

L1D UNIQUE REGIONS ACCESSED: 0
L1D REGIONS CONFLICTS: 0
L1D Cross Page Prefetch Requests: 0
L1D Same Page Prefetch Requests: 4531912
L1D ROI Sum of L1D PQ occupancy: 393281320
L1D PREFETCHES PUSHED FROM L2C: 0
L1I SPEC fills:          0  NON-SPEC fills:          0
L1I Test counter :          0
L1I Leapfrog:          0
L1I MSHR merge:          0
L1I TOTAL     ACCESS:   34520983  HIT:   34520983  MISS:          0  HIT %:        100  MISS %:          0   MPKI: 0
L1I LOAD      TOTAL       ACCESS:   34520983  HIT:   34520983  MISS:          0  HIT %:        100  MISS %:          0   MPKI: 0
L1I LOAD      NON_SPEC    ACCESS:   34520983  HIT:   34520983  MISS:          0  HIT %:        100  MISS %:          0   MPKI: 0
L1I PREFETCH  REQUESTED:          0  ISSUED:          0  USEFUL:          0  USELESS:          0
L1I USEFUL LOAD PREFETCHES:          0 PREFETCH ISSUED TO LOWER LEVEL:          0  ACCURACY: -nan
L1I TIMELY PREFETCHES:          0 LATE PREFETCHES: 0 DROPPED PREFETCHES: 0
L1I COMMIT LATE PREFETCHES: 0 NORMAL LATE: 0 MISSED OPPORTUNITY: 0 UNCOVERED: 0
L1I PREFETCHES SAME FILL-ORIGIN LEVEL: 0 DIFFERENT FILL-ORIGIN LEVEL: 0
L1I AVERAGE MISS LATENCY: -nan cycles
L1I AVERAGE MISS LATENCY LOAD: -nan cycles
L1I AVERAGE MISS LATENCY PREFETCH: -nan cycles
L1I AVERAGE MSHR OCCUPANCY: 0
L1I MSHR FULL: 0
L1I RQ	ACCESS:   49344923	FORWARD:          0	MERGED:   14823938	TO_CACHE:   34520985

BTB SPEC fills:          0  NON-SPEC fills:          0
BTB Test counter :          0
BTB Leapfrog:          0
BTB MSHR merge:          0
BTB TOTAL     ACCESS:    3122106  HIT:    3122100  MISS:          6  HIT %:    99.9998  MISS %: 0.000192178   MPKI: 3e-05
BTB BRANCH_DIRECT_JUMP	ACCESS:     397756  HIT:     397755  MISS:          1
BTB BRANCH_INDIRECT	ACCESS:          0  HIT:          0  MISS:          0
BTB BRANCH_CONDITIONAL	ACCESS:    2724350  HIT:    2724345  MISS:          5
BTB BRANCH_DIRECT_CALL	ACCESS:          0  HIT:          0  MISS:          0
BTB BRANCH_INDIRECT_CALL	ACCESS:          0  HIT:          0  MISS:          0
BTB BRANCH_RETURN	ACCESS:          0  HIT:          0  MISS:          0
BTB BRANCH_OTHER ACCESS:          0  HIT:          0  MISS:          0

L2C SPEC fills:          0  NON-SPEC fills:      90070
L2C Test counter :          0
L2C Leapfrog:          0
L2C MSHR merge:      31255
L2C TOTAL     ACCESS:   28014309  HIT:   19282657  MISS:    8731652  HIT %:    68.8315  MISS %:    31.1685   MPKI: 43.6583
L2C LOAD      TOTAL       ACCESS:    1521815  HIT:     633024  MISS:     888791  HIT %:    41.5966  MISS %:    58.4034   MPKI: 4.44395
L2C LOAD      NON_SPEC    ACCESS:     133872  HIT:      43802  MISS:      90070  HIT %:    32.7193  MISS %:    67.2807   MPKI: 0.45035
L2C LOAD      SPEC        ACCESS:    1387943  HIT:     589222  MISS:     798721  HIT %:    42.4529  MISS %:    57.5471   MPKI: 3.99361
L2C RFO       NON_SPEC    ACCESS:   10953117  HIT:    4995277  MISS:    5957840  HIT %:     45.606  MISS %:     54.394   MPKI: 29.7892
L2C PREFETCH  NON_SPEC    ACCESS:    1840267  HIT:     761183  MISS:    1079084  HIT %:    41.3626  MISS %:    58.6374   MPKI: 5.39542
L2C WRITEBACK NON_SPEC    ACCESS:   10953136  HIT:   10952647  MISS:        489  HIT %:    99.9955  MISS %: 0.00446447   MPKI: 0.002445
L2C CLEAN_EVICTION NON_SPEC    ACCESS:    1955523  HIT:    1234201  MISS:     721322  HIT %:    63.1136  MISS %:    36.8864   MPKI: 3.60661
L2C COMMIT LOAD NON_SPEC    ACCESS:     178222  HIT:     109548  MISS:      68674  HIT %:    61.4672  MISS %:    38.5328   MPKI: 0.34337
L2C LOAD TRANSLATION NON_SPEC    ACCESS:     612229  HIT:     596777  MISS:      15452  HIT %:    97.4761  MISS %:    2.52389   MPKI: 0.07726
L2C PREFETCH  REQUESTED:          0  ISSUED:          0  USEFUL:     632443  USELESS:     448325
L2C USEFUL LOAD PREFETCHES:     632443 PREFETCH ISSUED TO LOWER LEVEL:    1110548  ACCURACY: 56.9487
L2C TIMELY PREFETCHES:     632443 LATE PREFETCHES: 31464 DROPPED PREFETCHES: 0
L2C COMMIT LATE PREFETCHES: 0 NORMAL LATE: 31464 MISSED OPPORTUNITY: 0 UNCOVERED: 857327
L2C PREFETCHES SAME FILL-ORIGIN LEVEL: 933285 DIFFERENT FILL-ORIGIN LEVEL: 0
L2C AVERAGE MISS LATENCY: 495.182 cycles
L2C AVERAGE MISS LATENCY LOAD: 480.834 cycles
L2C AVERAGE MISS LATENCY PREFETCH: 527.832 cycles
L2C AVERAGE MSHR OCCUPANCY: 10.1552
L2C MSHR FULL: 0
L2C RQ	ACCESS:   13265407	FORWARD:          0	MERGED:          0	TO_CACHE:   13265389
L2C WQ	ACCESS:   12908672	FORWARD:         18	MERGED:         13	TO_CACHE:   12908659
L2C PQ	ACCESS:    2055062	FORWARD:          0	MERGED:        334	TO_CACHE:    2054728

L2C Instructions Evicting Data 0
L2C Translations Evicting Data 15386
L2C Data Evicting Data 7181828
L2C Instructions Evicting Instructions 0
L2C Translations Evicting Instructions 0
L2C Data Evicting Instructions 0
L2C Instructions Evicting Translations 0
L2C Translations Evicting Translations 66
L2C Data Evicting Translations 13840
L2C Dense regions hint from L2: 0
PSCL5 SPEC fills:          0  NON-SPEC fills:          0
PSCL5 Test counter :          0
PSCL5 Leapfrog:          0
PSCL5 MSHR merge:          0
PSCL5 TOTAL     ACCESS:          0  HIT:          0  MISS:          0  HIT %:       -nan  MISS %:       -nan   MPKI: 0
PSCL5 PREFETCH  REQUESTED:          0  ISSUED:          0  USEFUL:          0  USELESS:          0
PSCL5 USEFUL LOAD PREFETCHES:          0 PREFETCH ISSUED TO LOWER LEVEL:          0  ACCURACY: -nan
PSCL5 TIMELY PREFETCHES:          0 LATE PREFETCHES: 0 DROPPED PREFETCHES: 0
PSCL5 COMMIT LATE PREFETCHES: 0 NORMAL LATE: 0 MISSED OPPORTUNITY: 0 UNCOVERED: 0
PSCL5 PREFETCHES SAME FILL-ORIGIN LEVEL: 0 DIFFERENT FILL-ORIGIN LEVEL: 0

PSCL4 SPEC fills:          0  NON-SPEC fills:          0
PSCL4 Test counter :          0
PSCL4 Leapfrog:          0
PSCL4 MSHR merge:          0
PSCL4 TOTAL     ACCESS:          0  HIT:          0  MISS:          0  HIT %:       -nan  MISS %:       -nan   MPKI: 0
PSCL4 PREFETCH  REQUESTED:          0  ISSUED:          0  USEFUL:          0  USELESS:          0
PSCL4 USEFUL LOAD PREFETCHES:          0 PREFETCH ISSUED TO LOWER LEVEL:          0  ACCURACY: -nan
PSCL4 TIMELY PREFETCHES:          0 LATE PREFETCHES: 0 DROPPED PREFETCHES: 0
PSCL4 COMMIT LATE PREFETCHES: 0 NORMAL LATE: 0 MISSED OPPORTUNITY: 0 UNCOVERED: 0
PSCL4 PREFETCHES SAME FILL-ORIGIN LEVEL: 0 DIFFERENT FILL-ORIGIN LEVEL: 0

PSCL3 SPEC fills:          0  NON-SPEC fills:          0
PSCL3 Test counter :          0
PSCL3 Leapfrog:          0
PSCL3 MSHR merge:          0
PSCL3 TOTAL     ACCESS:          0  HIT:          0  MISS:          0  HIT %:       -nan  MISS %:       -nan   MPKI: 0
PSCL3 PREFETCH  REQUESTED:          0  ISSUED:          0  USEFUL:          0  USELESS:          0
PSCL3 USEFUL LOAD PREFETCHES:          0 PREFETCH ISSUED TO LOWER LEVEL:          0  ACCURACY: -nan
PSCL3 TIMELY PREFETCHES:          0 LATE PREFETCHES: 0 DROPPED PREFETCHES: 0
PSCL3 COMMIT LATE PREFETCHES: 0 NORMAL LATE: 0 MISSED OPPORTUNITY: 0 UNCOVERED: 0
PSCL3 PREFETCHES SAME FILL-ORIGIN LEVEL: 0 DIFFERENT FILL-ORIGIN LEVEL: 0

PSCL2 SPEC fills:          0  NON-SPEC fills:          0
PSCL2 Test counter :          0
PSCL2 Leapfrog:          0
PSCL2 MSHR merge:          0
PSCL2 TOTAL     ACCESS:          0  HIT:          0  MISS:          0  HIT %:       -nan  MISS %:       -nan   MPKI: 0
PSCL2 PREFETCH  REQUESTED:          0  ISSUED:          0  USEFUL:          0  USELESS:          0
PSCL2 USEFUL LOAD PREFETCHES:          0 PREFETCH ISSUED TO LOWER LEVEL:          0  ACCURACY: -nan
PSCL2 TIMELY PREFETCHES:          0 LATE PREFETCHES: 0 DROPPED PREFETCHES: 0
PSCL2 COMMIT LATE PREFETCHES: 0 NORMAL LATE: 0 MISSED OPPORTUNITY: 0 UNCOVERED: 0
PSCL2 PREFETCHES SAME FILL-ORIGIN LEVEL: 0 DIFFERENT FILL-ORIGIN LEVEL: 0

LLC SPEC fills:          0  NON-SPEC fills:      86543
LLC Test counter :          0
LLC Leapfrog:          0
LLC MSHR merge:          0
LLC TOTAL     ACCESS:   15914554  HIT:    7296678  MISS:    8617876  HIT %:    45.8491  MISS %:    54.1509   MPKI: 43.0894
LLC LOAD      TOTAL       ACCESS:     857536  HIT:         94  MISS:     857442  HIT %:  0.0109616  MISS %:     99.989   MPKI: 4.28721
LLC LOAD      NON_SPEC    ACCESS:      86561  HIT:         18  MISS:      86543  HIT %:  0.0207946  MISS %:    99.9792   MPKI: 0.432715
LLC LOAD      SPEC        ACCESS:     770975  HIT:         76  MISS:     770899  HIT %: 0.00985765  MISS %:    99.9901   MPKI: 3.8545
LLC RFO       NON_SPEC    ACCESS:    5957752  HIT:      85167  MISS:    5872585  HIT %:    1.42952  MISS %:    98.5705   MPKI: 29.3629
LLC PREFETCH  NON_SPEC    ACCESS:    1110548  HIT:        177  MISS:    1110371  HIT %:  0.0159381  MISS %:    99.9841   MPKI: 5.55185
LLC WRITEBACK NON_SPEC    ACCESS:    5957576  HIT:    5957233  MISS:        343  HIT %:    99.9942  MISS %: 0.00575738   MPKI: 0.001715
LLC CLEAN_EVICTION NON_SPEC    ACCESS:    1947225  HIT:    1246057  MISS:     701168  HIT %:    63.9914  MISS %:    36.0086   MPKI: 3.50584
LLC COMMIT LOAD NON_SPEC    ACCESS:      68465  HIT:       7950  MISS:      60515  HIT %:    11.6118  MISS %:    88.3882   MPKI: 0.302575
LLC LOAD TRANSLATION NON_SPEC    ACCESS:      15452  HIT:          0  MISS:      15452  HIT %:          0  MISS %:        100   MPKI: 0.07726
LLC PREFETCH  REQUESTED:          0  ISSUED:          0  USEFUL:       8037  USELESS:    1108773
LLC USEFUL LOAD PREFETCHES:       8037 PREFETCH ISSUED TO LOWER LEVEL:    1110371  ACCURACY: 0.723812
LLC TIMELY PREFETCHES:       8037 LATE PREFETCHES: 0 DROPPED PREFETCHES: 0
LLC COMMIT LATE PREFETCHES: 0 NORMAL LATE: 0 MISSED OPPORTUNITY: 0 UNCOVERED: 857442
LLC PREFETCHES SAME FILL-ORIGIN LEVEL: 0 DIFFERENT FILL-ORIGIN LEVEL: 0
LLC AVERAGE MISS LATENCY: 476.227 cycles
LLC AVERAGE MISS LATENCY LOAD: 461.905 cycles
LLC AVERAGE MISS LATENCY PREFETCH: 510.387 cycles
LLC AVERAGE MSHR OCCUPANCY: 9.40967
LLC MSHR FULL: 0
LLC RQ	ACCESS:    6899296	FORWARD:          0	MERGED:          0	TO_CACHE:    6899208
LLC WQ	ACCESS:    7904801	FORWARD:         88	MERGED:          0	TO_CACHE:    7904801
LLC PQ	ACCESS:    1110548	FORWARD:          0	MERGED:          0	TO_CACHE:    1110548

LLC Dense regions hint to LLC: 0

RAW hits: 4085128
Loads Generated: 50393892
Loads sent to L1D: 46308764
Stores Generated: 34563858
Stores sent to L1D: 34563860
Major fault: 0 Minor fault: 72955
Allocated PAGES: 72955
Total Load insts: 56281685
Total Non-spec loads: 2716653
Percentage of speculative loads: 95.1731

LeapFrogging counter: 14285152
Commit hits: 15725495 miss: 28282138
Commit hit %: 35.7336 miss %: 64.2664
Commits not translated: 0
Loads retired: 1539380
Stores retired: 34563860
Cache fills: 1539380
L1D response latency: 355.737 cycles
Load retirement latency: 883.582 cycles
OOO test counter: 0
Discarded buffer inserts: 15725495 hits: 195842 hit %: 1.24538
Filter prediction accuracy: -nan
Speculative prefetch buffer size: 0
CPU 0 L1D PC-based stride prefetcher final stats
Degree: 3

DRAM Statistics
 CHANNEL 0
 RQ ROW_BUFFER_HIT:     595750  ROW_BUFFER_MISS:    7320615
 DBUS_CONGESTED:         16
 WQ ROW_BUFFER_HIT:    1800195  ROW_BUFFER_MISS:    6018641  FULL:      14208

 AVG_CONGESTED_CYCLE: 5
 All warmup complete: 2
Channel 0 Bank busy for read cycles: 0
Channel 0 Bank busy for write cycles: 0
Channel 0
Rank 0
0banks busy for read cycles: 38412258
0banks busy for write cycles: 25164
1banks busy for read cycles: 19439933
1banks busy for write cycles: 3093732
2banks busy for read cycles: 17308094
2banks busy for write cycles: 2667111
3banks busy for read cycles: 25985719
3banks busy for write cycles: 2617190
4banks busy for read cycles: 26335282
4banks busy for write cycles: 2493223
5banks busy for read cycles: 40392683
5banks busy for write cycles: 2660148
6banks busy for read cycles: 49156173
6banks busy for write cycles: 2950535
7banks busy for read cycles: 44141068
7banks busy for write cycles: 11454666
8banks busy for read cycles: 27690945
8banks busy for write cycles: 143827048

CPU 0 Branch Prediction Accuracy: 97.656% MPKI: 0.36593 Average ROB Occupancy at Mispredict: 203.953
Branch types
NOT_BRANCH: 196877389 98.4387%
BRANCH_DIRECT_JUMP: 397756 0.198878%
BRANCH_INDIRECT: 0 0%
BRANCH_CONDITIONAL: 2724544 1.36227%
BRANCH_DIRECT_CALL: 0 0%
BRANCH_INDIRECT_CALL: 0 0%
BRANCH_RETURN: 0 0%
BRANCH_OTHER: 0 0%

DRAM PAGES: 1048576
Allocated PAGES: 72955
