
*** ChampSim Multicore Out-of-Order Simulator ***

Warmup Instructions: 50000000
Simulation Instructions: 200000000
Number of CPUs: 1
LLC sets: 2048
LLC ways: 16
L0D sets: 16
L0D ways: 2
ROB size: 352
LQ size: 128
SQ size: 72
Secure Berti: OFF
Berti: OFF
Berti Fill: OFF
On commit prefetching: OFF
Hit-based filter: OFF
Time-guarding: ON
Free-slotting: ON
Leap-frogging: ON
Train prefetcher on L0D bypass: OFF
No translation penalty for prefetchers: OFF
Prefetch to L0D only: OFF
Prefetch to L1D only: OFF
Clean evictions: ON
Commit loads: ON
Commit write: ON
Fill commit loads to L2C, LLC: ON
DRAM IO FREQUENCY: 6400
ROB SIZE: 352
Off-chip DRAM Size: 4096 MB Channels: 1 Width: 64-bit Data Rate: 6400 MT/s
CPU 0 runs /home/sumon/secure_berti/GhostMinion/../../traces/spec/619.lbm_s-2676B.champsimtrace.xz
.xz
BTB has LRU replacement policy
ITLB has LRU replacement policy
DTLB has LRU replacement policy
STLB has LRU replacement policy
L1I has LRU replacement policy
L0D has LRU replacement policy
CPU 0 L1D IP-based stride prefetcher
L1D has LRU replacement policy
L2C has LRU replacement policy
LLC has LRU replacement policy
Heartbeat CPU 0 instructions: 10000003 cycles: 3038649 heartbeat IPC: 3.29094 cumulative IPC: 3.29094 (Simulation time: 0 hr 0 min 42 sec) 
Heartbeat CPU 0 instructions: 20000003 cycles: 6071519 heartbeat IPC: 3.29721 cumulative IPC: 3.29407 (Simulation time: 0 hr 1 min 23 sec) 
Heartbeat CPU 0 instructions: 30000003 cycles: 9096576 heartbeat IPC: 3.30572 cumulative IPC: 3.29794 (Simulation time: 0 hr 2 min 20 sec) 
Heartbeat CPU 0 instructions: 40000002 cycles: 12105536 heartbeat IPC: 3.32341 cumulative IPC: 3.30427 (Simulation time: 0 hr 3 min 14 sec) 
Heartbeat CPU 0 instructions: 50000001 cycles: 15099384 heartbeat IPC: 3.34018 cumulative IPC: 3.31139 (Simulation time: 0 hr 4 min 13 sec) 

Warmup complete CPU 0 instructions: 50000001 cycles: 15099384 (Simulation time: 0 hr 4 min 13 sec) 

Heartbeat CPU 0 instructions: 60000002 cycles: 36763168 heartbeat IPC: 0.4616 cumulative IPC: 0.4616 (Simulation time: 0 hr 6 min 0 sec) 
Heartbeat CPU 0 instructions: 70000000 cycles: 57356147 heartbeat IPC: 0.485602 cumulative IPC: 0.473297 (Simulation time: 0 hr 7 min 49 sec) 
Heartbeat CPU 0 instructions: 80000002 cycles: 76066280 heartbeat IPC: 0.53447 cumulative IPC: 0.49207 (Simulation time: 0 hr 9 min 29 sec) 
Heartbeat CPU 0 instructions: 90000000 cycles: 94478352 heartbeat IPC: 0.543122 cumulative IPC: 0.503912 (Simulation time: 0 hr 10 min 50 sec) 
Heartbeat CPU 0 instructions: 100000003 cycles: 111770359 heartbeat IPC: 0.578302 cumulative IPC: 0.517218 (Simulation time: 0 hr 12 min 4 sec) 
Heartbeat CPU 0 instructions: 110000000 cycles: 128752071 heartbeat IPC: 0.588869 cumulative IPC: 0.527924 (Simulation time: 0 hr 13 min 8 sec) 
Heartbeat CPU 0 instructions: 120000003 cycles: 144989492 heartbeat IPC: 0.615862 cumulative IPC: 0.538917 (Simulation time: 0 hr 14 min 40 sec) 
Heartbeat CPU 0 instructions: 130000002 cycles: 160575790 heartbeat IPC: 0.641589 cumulative IPC: 0.549917 (Simulation time: 0 hr 15 min 55 sec) 
Heartbeat CPU 0 instructions: 140000003 cycles: 175835600 heartbeat IPC: 0.655316 cumulative IPC: 0.559924 (Simulation time: 0 hr 16 min 59 sec) 
Heartbeat CPU 0 instructions: 150000003 cycles: 190611188 heartbeat IPC: 0.676792 cumulative IPC: 0.569762 (Simulation time: 0 hr 18 min 33 sec) 
Heartbeat CPU 0 instructions: 160000001 cycles: 204680455 heartbeat IPC: 0.710769 cumulative IPC: 0.580227 (Simulation time: 0 hr 19 min 40 sec) 
Heartbeat CPU 0 instructions: 170000003 cycles: 218711510 heartbeat IPC: 0.712705 cumulative IPC: 0.589356 (Simulation time: 0 hr 20 min 44 sec) 
Heartbeat CPU 0 instructions: 180000000 cycles: 232563242 heartbeat IPC: 0.721931 cumulative IPC: 0.5978 (Simulation time: 0 hr 21 min 50 sec) 
Heartbeat CPU 0 instructions: 190000000 cycles: 246111799 heartbeat IPC: 0.738086 cumulative IPC: 0.606028 (Simulation time: 0 hr 22 min 45 sec) 
Heartbeat CPU 0 instructions: 200000002 cycles: 259548730 heartbeat IPC: 0.744218 cumulative IPC: 0.613624 (Simulation time: 0 hr 23 min 40 sec) 
Heartbeat CPU 0 instructions: 210000000 cycles: 272621983 heartbeat IPC: 0.76492 cumulative IPC: 0.621305 (Simulation time: 0 hr 24 min 34 sec) 
Heartbeat CPU 0 instructions: 220000000 cycles: 285830560 heartbeat IPC: 0.757084 cumulative IPC: 0.627929 (Simulation time: 0 hr 25 min 27 sec) 
Heartbeat CPU 0 instructions: 230000002 cycles: 298700719 heartbeat IPC: 0.776991 cumulative IPC: 0.634694 (Simulation time: 0 hr 26 min 17 sec) 
Heartbeat CPU 0 instructions: 240000002 cycles: 311658046 heartbeat IPC: 0.771764 cumulative IPC: 0.640683 (Simulation time: 0 hr 27 min 4 sec) 
Heartbeat CPU 0 instructions: 250000000 cycles: 324507318 heartbeat IPC: 0.778254 cumulative IPC: 0.646396 (Simulation time: 0 hr 27 min 49 sec) 
Finished CPU 0 instructions: 200000003 cycles: 309407935 cumulative IPC: 0.646396 (Simulation time: 0 hr 27 min 49 sec) 
 Instruction ID: 250000108

ChampSim completed all CPUs

Region of Interest Statistics

CPU 0 cumulative IPC: 0.646396 instructions: 200000003 cycles: 309407935
ITLB SPEC fills:          0  NON-SPEC fills:          0
ITLB Test counter :          0
ITLB Leapfrog:          0
ITLB MSHR merge:          0
ITLB TOTAL     ACCESS:   26106828  HIT:   26106828  MISS:          0  HIT %:        100  MISS %:          0   MPKI: 0
ITLB LOAD TRANSLATION NON_SPEC    ACCESS:   26106828  HIT:   26106828  MISS:          0  HIT %:        100  MISS %:          0   MPKI: 0
ITLB PREFETCH  REQUESTED:          0  ISSUED:          0  USEFUL:          0  USELESS:          0
ITLB USEFUL LOAD PREFETCHES:          0 PREFETCH ISSUED TO LOWER LEVEL:          0  ACCURACY: -nan
ITLB TIMELY PREFETCHES:          0 LATE PREFETCHES: 0 DROPPED PREFETCHES: 0
ITLB COMMIT LATE PREFETCHES: 0 NORMAL LATE: 0 MISSED OPPORTUNITY: 0 UNCOVERED: 0
ITLB PREFETCHES SAME FILL-ORIGIN LEVEL: 0 DIFFERENT FILL-ORIGIN LEVEL: 0
ITLB AVERAGE MISS LATENCY: -nan cycles
ITLB AVERAGE MISS LATENCY LOAD: -nan cycles
ITLB AVERAGE MISS LATENCY PREFETCH: -nan cycles
ITLB AVERAGE MSHR OCCUPANCY: 0
ITLB MSHR FULL: 0
ITLB RQ	ACCESS:   34130279	FORWARD:          0	MERGED:    8023452	TO_CACHE:   26106827

DTLB SPEC fills:          0  NON-SPEC fills:          0
DTLB Test counter :          0
DTLB Leapfrog:          0
DTLB MSHR merge:          0
DTLB TOTAL     ACCESS:   39325049  HIT:   39171520  MISS:     153529  HIT %:    99.6096  MISS %:    0.39041   MPKI: 0.767645
DTLB LOAD TRANSLATION NON_SPEC    ACCESS:   39325049  HIT:   39171520  MISS:     153529  HIT %:    99.6096  MISS %:    0.39041   MPKI: 0.767645
DTLB PREFETCH  REQUESTED:          0  ISSUED:          0  USEFUL:          0  USELESS:          0
DTLB USEFUL LOAD PREFETCHES:          0 PREFETCH ISSUED TO LOWER LEVEL:          0  ACCURACY: -nan
DTLB TIMELY PREFETCHES:          0 LATE PREFETCHES: 0 DROPPED PREFETCHES: 0
DTLB COMMIT LATE PREFETCHES: 0 NORMAL LATE: 0 MISSED OPPORTUNITY: 0 UNCOVERED: 0
DTLB PREFETCHES SAME FILL-ORIGIN LEVEL: 0 DIFFERENT FILL-ORIGIN LEVEL: 0
DTLB AVERAGE MISS LATENCY: 131.655 cycles
DTLB AVERAGE MISS LATENCY LOAD: -nan cycles
DTLB AVERAGE MISS LATENCY PREFETCH: -nan cycles
DTLB AVERAGE MSHR OCCUPANCY: 0.0619643
DTLB MSHR FULL: 0
DTLB RQ	ACCESS:   59835902	FORWARD:          0	MERGED:   20468921	TO_CACHE:   39366981

STLB SPEC fills:          0  NON-SPEC fills:          0
STLB Test counter :          0
STLB Leapfrog:          0
STLB MSHR merge:          0
STLB TOTAL     ACCESS:    1325442  HIT:    1242136  MISS:      83306  HIT %:    93.7149  MISS %:    6.28515   MPKI: 0.41653
STLB LOAD TRANSLATION NON_SPEC    ACCESS:     153529  HIT:      70223  MISS:      83306  HIT %:    45.7392  MISS %:    54.2608   MPKI: 0.41653
STLB TRANSLATION FROM L1D PREFETCHER NON_SPEC    ACCESS:    1171913  HIT:    1171913  MISS:          0  HIT %:        100  MISS %:          0   MPKI: 0
STLB PREFETCH  REQUESTED:          0  ISSUED:          0  USEFUL:          0  USELESS:          0
STLB USEFUL LOAD PREFETCHES:          0 PREFETCH ISSUED TO LOWER LEVEL:          0  ACCURACY: -nan
STLB TIMELY PREFETCHES:          0 LATE PREFETCHES: 0 DROPPED PREFETCHES: 0
STLB COMMIT LATE PREFETCHES: 0 NORMAL LATE: 0 MISSED OPPORTUNITY: 0 UNCOVERED: 0
STLB PREFETCHES SAME FILL-ORIGIN LEVEL: 0 DIFFERENT FILL-ORIGIN LEVEL: 0
STLB AVERAGE MISS LATENCY: 226.029 cycles
STLB AVERAGE MISS LATENCY LOAD: -nan cycles
STLB AVERAGE MISS LATENCY PREFETCH: -nan cycles
STLB AVERAGE MSHR OCCUPANCY: 0.074689
STLB MSHR FULL: 0
STLB RQ	ACCESS:    3713466	FORWARD:          0	MERGED:    2388024	TO_CACHE:    1325442

STLB Hit, L1D data hit: 0
STLB Hit, L2C data hit: 0
STLB Hit, LLC data hit: 0
STLB Hit, LLC data miss: 0
STLB STLB hints to L2: 0
L0D SPEC fills:   16592091  NON-SPEC fills:          0
L0D TimeGuard Request with older TS:     117469 Restricted eviction:      11079 read:    1017696
L0D Test counter :          0
L0D Leapfrog:          0
L0D MSHR merge:    2709985
L0D TOTAL     ACCESS:   25976150  HIT:    8099245  MISS:   17876905  HIT %:    31.1795  MISS %:    68.8205   MPKI: 89.3845
L0D LOAD      TOTAL       ACCESS:   25976150  HIT:    8099245  MISS:   17876905  HIT %:    31.1795  MISS %:    68.8205   MPKI: 89.3845
L0D LOAD      NON_SPEC    ACCESS:    2330273  HIT:    1056538  MISS:    1273735  HIT %:    45.3397  MISS %:    54.6603   MPKI: 6.36867
L0D LOAD      SPEC        ACCESS:   23645877  HIT:    7042707  MISS:   16603170  HIT %:    29.7841  MISS %:    70.2159   MPKI: 83.0158
L0D PREFETCH  REQUESTED:          0  ISSUED:          0  USEFUL:          0  USELESS:          0
L0D USEFUL LOAD PREFETCHES:          0 PREFETCH ISSUED TO LOWER LEVEL:          0  ACCURACY: -nan
L0D TIMELY PREFETCHES:          0 LATE PREFETCHES: 0 DROPPED PREFETCHES: 0
L0D COMMIT LATE PREFETCHES: 0 NORMAL LATE: 0 MISSED OPPORTUNITY: 0 UNCOVERED: 17876905
L0D PREFETCHES SAME FILL-ORIGIN LEVEL: 0 DIFFERENT FILL-ORIGIN LEVEL: 0
L0D AVERAGE MISS LATENCY: 24.4719 cycles
L0D AVERAGE MISS LATENCY LOAD: 24.4719 cycles
L0D AVERAGE MISS LATENCY PREFETCH: -nan cycles
L0D AVERAGE MSHR OCCUPANCY: 0.974008
L0D MSHR FULL: 0.0207302
L0D RQ	ACCESS:   44080425	FORWARD:          0	MERGED:   15394289	TO_CACHE:   28686136
L0D WQ	ACCESS:   31149766	FORWARD:          0	MERGED:          0	TO_CACHE:   31149766

L1D SPEC fills:          0  NON-SPEC fills:     165192
L1D Test counter :          0
L1D Leapfrog:          0
L1D MSHR merge:      12523
L1D TOTAL     ACCESS:   78831014  HIT:   69328743  MISS:    9502271  HIT %:     87.946  MISS %:     12.054   MPKI: 47.5114
L1D LOAD      TOTAL       ACCESS:   17874738  HIT:   17037737  MISS:     837001  HIT %:    95.3174  MISS %:    4.68259   MPKI: 4.185
L1D LOAD      NON_SPEC    ACCESS:    1272974  HIT:    1107782  MISS:     165192  HIT %:    87.0231  MISS %:    12.9769   MPKI: 0.82596
L1D LOAD      SPEC        ACCESS:   16601764  HIT:   15929955  MISS:     671809  HIT %:    95.9534  MISS %:    4.04661   MPKI: 3.35904
L1D RFO       NON_SPEC    ACCESS:   30622361  HIT:   23166467  MISS:    7455894  HIT %:    75.6521  MISS %:    24.3479   MPKI: 37.2795
L1D PREFETCH  NON_SPEC    ACCESS:    2020658  HIT:    1519627  MISS:     501031  HIT %:    75.2046  MISS %:    24.7954   MPKI: 2.50515
L1D COMMIT LOAD NON_SPEC    ACCESS:   11888659  HIT:   11836203  MISS:      52456  HIT %:    99.5588  MISS %:   0.441227   MPKI: 0.26228
L1D COMMIT WRITE NON_SPEC    ACCESS:   16424598  HIT:   15768709  MISS:     655889  HIT %:    96.0067  MISS %:    3.99333   MPKI: 3.27944
L1D PREFETCH  REQUESTED:    3712444  ISSUED:    3712362  USEFUL:     501034  USELESS:          0
L1D USEFUL LOAD PREFETCHES:     501034 PREFETCH ISSUED TO LOWER LEVEL:    1909579  ACCURACY: 26.2379
L1D TIMELY PREFETCHES:     501034 LATE PREFETCHES: 10354 DROPPED PREFETCHES: 0
L1D COMMIT LATE PREFETCHES: 0 NORMAL LATE: 10354 MISSED OPPORTUNITY: 0 UNCOVERED: 826647
L1D PREFETCHES SAME FILL-ORIGIN LEVEL: 511385 DIFFERENT FILL-ORIGIN LEVEL: 1398194
L1D AVERAGE MISS LATENCY: 261.036 cycles
L1D AVERAGE MISS LATENCY LOAD: 289.047 cycles
L1D AVERAGE MISS LATENCY PREFETCH: 173.76 cycles
L1D AVERAGE MSHR OCCUPANCY: 12.8186
L1D MSHR FULL: 0.648769
L1D RQ	ACCESS:   42670164	FORWARD:          0	MERGED:   12838012	TO_CACHE:   29766103
L1D WQ	ACCESS:   47607498	FORWARD:      66049	MERGED:     499509	TO_CACHE:   47107989
L1D PQ	ACCESS:    3712362	FORWARD:          0	MERGED:     152425	TO_CACHE:    3559937

L1D UNIQUE REGIONS ACCESSED: 0
L1D REGIONS CONFLICTS: 0
L1D Cross Page Prefetch Requests: 0
L1D Same Page Prefetch Requests: 4615795
L1D ROI Sum of L1D PQ occupancy: 163975323
L1D PREFETCHES PUSHED FROM L2C: 0
L1I SPEC fills:          0  NON-SPEC fills:          0
L1I Test counter :          0
L1I Leapfrog:          0
L1I MSHR merge:          0
L1I TOTAL     ACCESS:   34130280  HIT:   34130280  MISS:          0  HIT %:        100  MISS %:          0   MPKI: 0
L1I LOAD      TOTAL       ACCESS:   34130280  HIT:   34130280  MISS:          0  HIT %:        100  MISS %:          0   MPKI: 0
L1I LOAD      NON_SPEC    ACCESS:   34130280  HIT:   34130280  MISS:          0  HIT %:        100  MISS %:          0   MPKI: 0
L1I PREFETCH  REQUESTED:          0  ISSUED:          0  USEFUL:          0  USELESS:          0
L1I USEFUL LOAD PREFETCHES:          0 PREFETCH ISSUED TO LOWER LEVEL:          0  ACCURACY: -nan
L1I TIMELY PREFETCHES:          0 LATE PREFETCHES: 0 DROPPED PREFETCHES: 0
L1I COMMIT LATE PREFETCHES: 0 NORMAL LATE: 0 MISSED OPPORTUNITY: 0 UNCOVERED: 0
L1I PREFETCHES SAME FILL-ORIGIN LEVEL: 0 DIFFERENT FILL-ORIGIN LEVEL: 0
L1I AVERAGE MISS LATENCY: -nan cycles
L1I AVERAGE MISS LATENCY LOAD: -nan cycles
L1I AVERAGE MISS LATENCY PREFETCH: -nan cycles
L1I AVERAGE MSHR OCCUPANCY: 0
L1I MSHR FULL: 0
L1I RQ	ACCESS:   48284041	FORWARD:          0	MERGED:   14153762	TO_CACHE:   34130279

BTB SPEC fills:          0  NON-SPEC fills:          0
BTB Test counter :          0
BTB Leapfrog:          0
BTB MSHR merge:          0
BTB TOTAL     ACCESS:    2423395  HIT:    2423389  MISS:          6  HIT %:    99.9998  MISS %: 0.000247587   MPKI: 3e-05
BTB BRANCH_DIRECT_JUMP	ACCESS:     120779  HIT:     120778  MISS:          1
BTB BRANCH_INDIRECT	ACCESS:          0  HIT:          0  MISS:          0
BTB BRANCH_CONDITIONAL	ACCESS:    2302616  HIT:    2302611  MISS:          5
BTB BRANCH_DIRECT_CALL	ACCESS:          0  HIT:          0  MISS:          0
BTB BRANCH_INDIRECT_CALL	ACCESS:          0  HIT:          0  MISS:          0
BTB BRANCH_RETURN	ACCESS:          0  HIT:          0  MISS:          0
BTB BRANCH_OTHER ACCESS:          0  HIT:          0  MISS:          0

L2C SPEC fills:          0  NON-SPEC fills:      96388
L2C Test counter :          0
L2C Leapfrog:          0
L2C MSHR merge:      13614
L2C TOTAL     ACCESS:   19246014  HIT:   13520860  MISS:    5725154  HIT %:    70.2528  MISS %:    29.7472   MPKI: 28.6258
L2C LOAD      TOTAL       ACCESS:     826647  HIT:     412405  MISS:     414242  HIT %:    49.8889  MISS %:    50.1111   MPKI: 2.07121
L2C LOAD      NON_SPEC    ACCESS:     160908  HIT:      64520  MISS:      96388  HIT %:    40.0974  MISS %:    59.9026   MPKI: 0.48194
L2C LOAD      SPEC        ACCESS:     665739  HIT:     347885  MISS:     317854  HIT %:    52.2555  MISS %:    47.7445   MPKI: 1.58927
L2C RFO       NON_SPEC    ACCESS:    7455894  HIT:    3391716  MISS:    4064178  HIT %:    45.4904  MISS %:    54.5096   MPKI: 20.3209
L2C PREFETCH  NON_SPEC    ACCESS:    1706949  HIT:     785882  MISS:     921067  HIT %:    46.0402  MISS %:    53.9598   MPKI: 4.60533
L2C WRITEBACK NON_SPEC    ACCESS:    7455889  HIT:    7455811  MISS:         78  HIT %:     99.999  MISS %: 0.00104615   MPKI: 0.00039
L2C CLEAN_EVICTION NON_SPEC    ACCESS:    1331730  HIT:    1034663  MISS:     297067  HIT %:    77.6932  MISS %:    22.3068   MPKI: 1.48533
L2C COMMIT LOAD NON_SPEC    ACCESS:      52456  HIT:      34446  MISS:      18010  HIT %:    65.6665  MISS %:    34.3335   MPKI: 0.09005
L2C LOAD TRANSLATION NON_SPEC    ACCESS:     416449  HIT:     405937  MISS:      10512  HIT %:    97.4758  MISS %:     2.5242   MPKI: 0.05256
L2C PREFETCH  REQUESTED:          0  ISSUED:          0  USEFUL:     409649  USELESS:     511742
L2C USEFUL LOAD PREFETCHES:     409649 PREFETCH ISSUED TO LOWER LEVEL:     934785  ACCURACY: 43.8228
L2C TIMELY PREFETCHES:     409649 LATE PREFETCHES: 13718 DROPPED PREFETCHES: 0
L2C COMMIT LATE PREFETCHES: 0 NORMAL LATE: 13718 MISSED OPPORTUNITY: 0 UNCOVERED: 400524
L2C PREFETCHES SAME FILL-ORIGIN LEVEL: 726821 DIFFERENT FILL-ORIGIN LEVEL: 0
L2C AVERAGE MISS LATENCY: 468.01 cycles
L2C AVERAGE MISS LATENCY LOAD: 481.827 cycles
L2C AVERAGE MISS LATENCY PREFETCH: 475.186 cycles
L2C AVERAGE MSHR OCCUPANCY: 8.90335
L2C MSHR FULL: 0
L2C RQ	ACCESS:    8751460	FORWARD:          0	MERGED:          0	TO_CACHE:    8751460
L2C WQ	ACCESS:    8787627	FORWARD:          0	MERGED:          5	TO_CACHE:    8787622
L2C PQ	ACCESS:    1909579	FORWARD:          0	MERGED:         77	TO_CACHE:    1909502

L2C Instructions Evicting Data 0
L2C Translations Evicting Data 10405
L2C Data Evicting Data 5089942
L2C Instructions Evicting Instructions 0
L2C Translations Evicting Instructions 0
L2C Data Evicting Instructions 0
L2C Instructions Evicting Translations 0
L2C Translations Evicting Translations 107
L2C Data Evicting Translations 9701
L2C Dense regions hint from L2: 0
PSCL5 SPEC fills:          0  NON-SPEC fills:          0
PSCL5 Test counter :          0
PSCL5 Leapfrog:          0
PSCL5 MSHR merge:          0
PSCL5 TOTAL     ACCESS:          0  HIT:          0  MISS:          0  HIT %:       -nan  MISS %:       -nan   MPKI: 0
PSCL5 PREFETCH  REQUESTED:          0  ISSUED:          0  USEFUL:          0  USELESS:          0
PSCL5 USEFUL LOAD PREFETCHES:          0 PREFETCH ISSUED TO LOWER LEVEL:          0  ACCURACY: -nan
PSCL5 TIMELY PREFETCHES:          0 LATE PREFETCHES: 0 DROPPED PREFETCHES: 0
PSCL5 COMMIT LATE PREFETCHES: 0 NORMAL LATE: 0 MISSED OPPORTUNITY: 0 UNCOVERED: 0
PSCL5 PREFETCHES SAME FILL-ORIGIN LEVEL: 0 DIFFERENT FILL-ORIGIN LEVEL: 0

PSCL4 SPEC fills:          0  NON-SPEC fills:          0
PSCL4 Test counter :          0
PSCL4 Leapfrog:          0
PSCL4 MSHR merge:          0
PSCL4 TOTAL     ACCESS:          0  HIT:          0  MISS:          0  HIT %:       -nan  MISS %:       -nan   MPKI: 0
PSCL4 PREFETCH  REQUESTED:          0  ISSUED:          0  USEFUL:          0  USELESS:          0
PSCL4 USEFUL LOAD PREFETCHES:          0 PREFETCH ISSUED TO LOWER LEVEL:          0  ACCURACY: -nan
PSCL4 TIMELY PREFETCHES:          0 LATE PREFETCHES: 0 DROPPED PREFETCHES: 0
PSCL4 COMMIT LATE PREFETCHES: 0 NORMAL LATE: 0 MISSED OPPORTUNITY: 0 UNCOVERED: 0
PSCL4 PREFETCHES SAME FILL-ORIGIN LEVEL: 0 DIFFERENT FILL-ORIGIN LEVEL: 0

PSCL3 SPEC fills:          0  NON-SPEC fills:          0
PSCL3 Test counter :          0
PSCL3 Leapfrog:          0
PSCL3 MSHR merge:          0
PSCL3 TOTAL     ACCESS:          0  HIT:          0  MISS:          0  HIT %:       -nan  MISS %:       -nan   MPKI: 0
PSCL3 PREFETCH  REQUESTED:          0  ISSUED:          0  USEFUL:          0  USELESS:          0
PSCL3 USEFUL LOAD PREFETCHES:          0 PREFETCH ISSUED TO LOWER LEVEL:          0  ACCURACY: -nan
PSCL3 TIMELY PREFETCHES:          0 LATE PREFETCHES: 0 DROPPED PREFETCHES: 0
PSCL3 COMMIT LATE PREFETCHES: 0 NORMAL LATE: 0 MISSED OPPORTUNITY: 0 UNCOVERED: 0
PSCL3 PREFETCHES SAME FILL-ORIGIN LEVEL: 0 DIFFERENT FILL-ORIGIN LEVEL: 0

PSCL2 SPEC fills:          0  NON-SPEC fills:          0
PSCL2 Test counter :          0
PSCL2 Leapfrog:          0
PSCL2 MSHR merge:          0
PSCL2 TOTAL     ACCESS:          0  HIT:          0  MISS:          0  HIT %:       -nan  MISS %:       -nan   MPKI: 0
PSCL2 PREFETCH  REQUESTED:          0  ISSUED:          0  USEFUL:          0  USELESS:          0
PSCL2 USEFUL LOAD PREFETCHES:          0 PREFETCH ISSUED TO LOWER LEVEL:          0  ACCURACY: -nan
PSCL2 TIMELY PREFETCHES:          0 LATE PREFETCHES: 0 DROPPED PREFETCHES: 0
PSCL2 COMMIT LATE PREFETCHES: 0 NORMAL LATE: 0 MISSED OPPORTUNITY: 0 UNCOVERED: 0
PSCL2 PREFETCHES SAME FILL-ORIGIN LEVEL: 0 DIFFERENT FILL-ORIGIN LEVEL: 0

LLC SPEC fills:          0  NON-SPEC fills:      92250
LLC Test counter :          0
LLC Leapfrog:          0
LLC MSHR merge:          0
LLC TOTAL     ACCESS:   10820913  HIT:    5173597  MISS:    5647316  HIT %:    47.8111  MISS %:    52.1889   MPKI: 28.2366
LLC LOAD      TOTAL       ACCESS:     400628  HIT:         58  MISS:     400570  HIT %:  0.0144773  MISS %:    99.9855   MPKI: 2.00285
LLC LOAD      NON_SPEC    ACCESS:      92254  HIT:          4  MISS:      92250  HIT %: 0.00433586  MISS %:    99.9957   MPKI: 0.46125
LLC LOAD      SPEC        ACCESS:     308374  HIT:         54  MISS:     308320  HIT %:  0.0175112  MISS %:    99.9825   MPKI: 1.5416
LLC RFO       NON_SPEC    ACCESS:    4064117  HIT:      68027  MISS:    3996090  HIT %:    1.67384  MISS %:    98.3262   MPKI: 19.9804
LLC PREFETCH  NON_SPEC    ACCESS:     934785  HIT:         62  MISS:     934723  HIT %: 0.00663254  MISS %:    99.9934   MPKI: 4.67361
LLC WRITEBACK NON_SPEC    ACCESS:    4065354  HIT:    4065286  MISS:         68  HIT %:    99.9983  MISS %: 0.00167267   MPKI: 0.00034
LLC CLEAN_EVICTION NON_SPEC    ACCESS:    1327611  HIT:    1038012  MISS:     289599  HIT %:    78.1865  MISS %:    21.8135   MPKI: 1.44799
LLC COMMIT LOAD NON_SPEC    ACCESS:      17906  HIT:       2152  MISS:      15754  HIT %:    12.0183  MISS %:    87.9817   MPKI: 0.07877
LLC LOAD TRANSLATION NON_SPEC    ACCESS:      10512  HIT:          0  MISS:      10512  HIT %:          0  MISS %:        100   MPKI: 0.05256
LLC PREFETCH  REQUESTED:          0  ISSUED:          0  USEFUL:       2199  USELESS:     932205
LLC USEFUL LOAD PREFETCHES:       2199 PREFETCH ISSUED TO LOWER LEVEL:     934723  ACCURACY: 0.235257
LLC TIMELY PREFETCHES:       2199 LATE PREFETCHES: 0 DROPPED PREFETCHES: 0
LLC COMMIT LATE PREFETCHES: 0 NORMAL LATE: 0 MISSED OPPORTUNITY: 0 UNCOVERED: 400570
LLC PREFETCHES SAME FILL-ORIGIN LEVEL: 0 DIFFERENT FILL-ORIGIN LEVEL: 0
LLC AVERAGE MISS LATENCY: 446.961 cycles
LLC AVERAGE MISS LATENCY LOAD: 463.499 cycles
LLC AVERAGE MISS LATENCY PREFETCH: 451.176 cycles
LLC AVERAGE MSHR OCCUPANCY: 8.14364
LLC MSHR FULL: 0
LLC RQ	ACCESS:    4493237	FORWARD:          0	MERGED:          0	TO_CACHE:    4493176
LLC WQ	ACCESS:    5392965	FORWARD:         61	MERGED:          0	TO_CACHE:    5392965
LLC PQ	ACCESS:     934785	FORWARD:          0	MERGED:          0	TO_CACHE:     934785

LLC Dense regions hint to LLC: 0

RAW hits: 3678682
Loads Generated: 47759108
Loads sent to L1D: 44080425
Stores Generated: 31149761
Stores sent to L1D: 31149766
Major fault: 0 Minor fault: 61402
Allocated PAGES: 61402
Total Load insts: 55309716
Total Non-spec loads: 3228019
Percentage of speculative loads: 94.1637

LeapFrogging counter: 4412368
Commit hits: 16474626 miss: 24793258
Commit hit %: 39.9212 miss %: 60.0788
Commits not translated: 0
Loads retired: 837001
Stores retired: 31149766
Cache fills: 837001
L1D response latency: 289.047 cycles
Load retirement latency: 638.906 cycles
OOO test counter: 0
Discarded buffer inserts: 16474626 hits: 60065 hit %: 0.364591
Filter prediction accuracy: -nan
Speculative prefetch buffer size: 0
CPU 0 L1D PC-based stride prefetcher final stats
Degree: 3

DRAM Statistics
 CHANNEL 0
 RQ ROW_BUFFER_HIT:     288165  ROW_BUFFER_MISS:    5069484
 DBUS_CONGESTED:          4
 WQ ROW_BUFFER_HIT:    1263066  ROW_BUFFER_MISS:    4061564  FULL:       5513

 AVG_CONGESTED_CYCLE: 6
 All warmup complete: 2
Channel 0 Bank busy for read cycles: 0
Channel 0 Bank busy for write cycles: 0
Channel 0
Rank 0
0banks busy for read cycles: 11990875
0banks busy for write cycles: 7590
1banks busy for read cycles: 17030758
1banks busy for write cycles: 1225053
2banks busy for read cycles: 14480493
2banks busy for write cycles: 1111876
3banks busy for read cycles: 24283816
3banks busy for write cycles: 1093424
4banks busy for read cycles: 21721303
4banks busy for write cycles: 1062202
5banks busy for read cycles: 29718748
5banks busy for write cycles: 1098628
6banks busy for read cycles: 33989943
6banks busy for write cycles: 1212190
7banks busy for read cycles: 27007528
7banks busy for write cycles: 6874077
8banks busy for read cycles: 14008976
8banks busy for write cycles: 101490456

CPU 0 Branch Prediction Accuracy: 99.0972% MPKI: 0.10939 Average ROB Occupancy at Mispredict: 168.386
Branch types
NOT_BRANCH: 197576323 98.7882%
BRANCH_DIRECT_JUMP: 120779 0.0603895%
BRANCH_INDIRECT: 0 0%
BRANCH_CONDITIONAL: 2302626 1.15131%
BRANCH_DIRECT_CALL: 0 0%
BRANCH_INDIRECT_CALL: 0 0%
BRANCH_RETURN: 0 0%
BRANCH_OTHER: 0 0%

DRAM PAGES: 1048576
Allocated PAGES: 61402
