
*** ChampSim Multicore Out-of-Order Simulator ***

Warmup Instructions: 50000000
Simulation Instructions: 200000000
Number of CPUs: 1
LLC sets: 2048
LLC ways: 16
L0D sets: 16
L0D ways: 2
ROB size: 352
LQ size: 128
SQ size: 72
Secure Berti: OFF
Berti: OFF
Berti Fill: OFF
On commit prefetching: OFF
Hit-based filter: OFF
Time-guarding: ON
Free-slotting: ON
Leap-frogging: ON
Train prefetcher on L0D bypass: OFF
No translation penalty for prefetchers: OFF
Prefetch to L0D only: OFF
Prefetch to L1D only: OFF
Clean evictions: ON
Commit loads: ON
Commit write: ON
Fill commit loads to L2C, LLC: ON
DRAM IO FREQUENCY: 6400
ROB SIZE: 352
Off-chip DRAM Size: 4096 MB Channels: 1 Width: 64-bit Data Rate: 6400 MT/s
CPU 0 runs /home/sumon/secure_berti/GhostMinion/../../traces/spec/623.xalancbmk_s-165B.champsimtrace.xz
.xz
BTB has LRU replacement policy
ITLB has LRU replacement policy
DTLB has LRU replacement policy
STLB has LRU replacement policy
L1I has LRU replacement policy
L0D has LRU replacement policy
CPU 0 L1D IP-based stride prefetcher
L1D has LRU replacement policy
L2C has LRU replacement policy
LLC has LRU replacement policy
Heartbeat CPU 0 instructions: 10000000 cycles: 3513927 heartbeat IPC: 2.84582 cumulative IPC: 2.84582 (Simulation time: 0 hr 0 min 36 sec) 
Heartbeat CPU 0 instructions: 20000001 cycles: 7030624 heartbeat IPC: 2.84358 cumulative IPC: 2.8447 (Simulation time: 0 hr 1 min 35 sec) 
Heartbeat CPU 0 instructions: 30000000 cycles: 10526727 heartbeat IPC: 2.86033 cumulative IPC: 2.84989 (Simulation time: 0 hr 2 min 34 sec) 
Heartbeat CPU 0 instructions: 40000003 cycles: 14036839 heartbeat IPC: 2.84891 cumulative IPC: 2.84964 (Simulation time: 0 hr 3 min 32 sec) 
Heartbeat CPU 0 instructions: 50000001 cycles: 17563184 heartbeat IPC: 2.8358 cumulative IPC: 2.84686 (Simulation time: 0 hr 4 min 30 sec) 

Warmup complete CPU 0 instructions: 50000001 cycles: 17563184 (Simulation time: 0 hr 4 min 30 sec) 

Heartbeat CPU 0 instructions: 60000000 cycles: 32139766 heartbeat IPC: 0.686032 cumulative IPC: 0.686032 (Simulation time: 0 hr 5 min 56 sec) 
Heartbeat CPU 0 instructions: 70000001 cycles: 46781332 heartbeat IPC: 0.682987 cumulative IPC: 0.684506 (Simulation time: 0 hr 7 min 22 sec) 
Heartbeat CPU 0 instructions: 80000001 cycles: 61426267 heartbeat IPC: 0.68283 cumulative IPC: 0.683946 (Simulation time: 0 hr 8 min 46 sec) 
Heartbeat CPU 0 instructions: 90000003 cycles: 76094784 heartbeat IPC: 0.681732 cumulative IPC: 0.683392 (Simulation time: 0 hr 10 min 10 sec) 
Heartbeat CPU 0 instructions: 100000001 cycles: 90773125 heartbeat IPC: 0.681276 cumulative IPC: 0.682967 (Simulation time: 0 hr 11 min 34 sec) 
Heartbeat CPU 0 instructions: 110000000 cycles: 105389418 heartbeat IPC: 0.684168 cumulative IPC: 0.683167 (Simulation time: 0 hr 12 min 57 sec) 
Heartbeat CPU 0 instructions: 120000000 cycles: 120085859 heartbeat IPC: 0.680437 cumulative IPC: 0.682776 (Simulation time: 0 hr 13 min 53 sec) 
Heartbeat CPU 0 instructions: 130000002 cycles: 134788502 heartbeat IPC: 0.68015 cumulative IPC: 0.682446 (Simulation time: 0 hr 14 min 44 sec) 
Heartbeat CPU 0 instructions: 140000000 cycles: 149711432 heartbeat IPC: 0.67011 cumulative IPC: 0.681053 (Simulation time: 0 hr 15 min 35 sec) 
Heartbeat CPU 0 instructions: 150000003 cycles: 164367622 heartbeat IPC: 0.682306 cumulative IPC: 0.681178 (Simulation time: 0 hr 16 min 27 sec) 
Heartbeat CPU 0 instructions: 160000000 cycles: 179150607 heartbeat IPC: 0.676453 cumulative IPC: 0.680746 (Simulation time: 0 hr 17 min 17 sec) 
Heartbeat CPU 0 instructions: 170000000 cycles: 193985213 heartbeat IPC: 0.674099 cumulative IPC: 0.680187 (Simulation time: 0 hr 18 min 8 sec) 
Heartbeat CPU 0 instructions: 180000002 cycles: 208864522 heartbeat IPC: 0.672074 cumulative IPC: 0.679556 (Simulation time: 0 hr 18 min 59 sec) 
Heartbeat CPU 0 instructions: 190000002 cycles: 223788455 heartbeat IPC: 0.670065 cumulative IPC: 0.678869 (Simulation time: 0 hr 19 min 50 sec) 
Heartbeat CPU 0 instructions: 200000000 cycles: 238702380 heartbeat IPC: 0.670514 cumulative IPC: 0.678306 (Simulation time: 0 hr 20 min 42 sec) 
Heartbeat CPU 0 instructions: 210000003 cycles: 253568191 heartbeat IPC: 0.672685 cumulative IPC: 0.677952 (Simulation time: 0 hr 21 min 34 sec) 
Heartbeat CPU 0 instructions: 220000000 cycles: 267600829 heartbeat IPC: 0.712624 cumulative IPC: 0.679898 (Simulation time: 0 hr 22 min 21 sec) 
Heartbeat CPU 0 instructions: 230000001 cycles: 278930673 heartbeat IPC: 0.882625 cumulative IPC: 0.688685 (Simulation time: 0 hr 23 min 1 sec) 
Heartbeat CPU 0 instructions: 240000002 cycles: 290042753 heartbeat IPC: 0.899922 cumulative IPC: 0.6973 (Simulation time: 0 hr 23 min 42 sec) 
Heartbeat CPU 0 instructions: 250000002 cycles: 301081342 heartbeat IPC: 0.905913 cumulative IPC: 0.705422 (Simulation time: 0 hr 24 min 21 sec) 
Finished CPU 0 instructions: 200000001 cycles: 283518158 cumulative IPC: 0.705422 (Simulation time: 0 hr 24 min 21 sec) 
 Instruction ID: 250000052

ChampSim completed all CPUs

Region of Interest Statistics

CPU 0 cumulative IPC: 0.705422 instructions: 200000001 cycles: 283518158
ITLB SPEC fills:          0  NON-SPEC fills:          0
ITLB Test counter :          0
ITLB Leapfrog:          0
ITLB MSHR merge:          0
ITLB TOTAL     ACCESS:   29166720  HIT:   29166709  MISS:         11  HIT %:        100  MISS %: 3.77142e-05   MPKI: 5.5e-05
ITLB LOAD TRANSLATION NON_SPEC    ACCESS:   29166720  HIT:   29166709  MISS:         11  HIT %:        100  MISS %: 3.77142e-05   MPKI: 5.5e-05
ITLB PREFETCH  REQUESTED:          0  ISSUED:          0  USEFUL:          0  USELESS:          0
ITLB USEFUL LOAD PREFETCHES:          0 PREFETCH ISSUED TO LOWER LEVEL:          0  ACCURACY: -nan
ITLB TIMELY PREFETCHES:          0 LATE PREFETCHES: 0 DROPPED PREFETCHES: 0
ITLB COMMIT LATE PREFETCHES: 0 NORMAL LATE: 0 MISSED OPPORTUNITY: 0 UNCOVERED: 0
ITLB PREFETCHES SAME FILL-ORIGIN LEVEL: 0 DIFFERENT FILL-ORIGIN LEVEL: 0
ITLB AVERAGE MISS LATENCY: 364 cycles
ITLB AVERAGE MISS LATENCY LOAD: -nan cycles
ITLB AVERAGE MISS LATENCY PREFETCH: -nan cycles
ITLB AVERAGE MSHR OCCUPANCY: 0
ITLB MSHR FULL: 0
ITLB RQ	ACCESS:   37833860	FORWARD:          0	MERGED:    8667141	TO_CACHE:   29166719

DTLB SPEC fills:          0  NON-SPEC fills:          0
DTLB Test counter :          0
DTLB Leapfrog:          0
DTLB MSHR merge:          0
DTLB TOTAL     ACCESS:   37036734  HIT:   36970899  MISS:      65835  HIT %:    99.8222  MISS %:   0.177756   MPKI: 0.329175
DTLB LOAD TRANSLATION NON_SPEC    ACCESS:   37036734  HIT:   36970899  MISS:      65835  HIT %:    99.8222  MISS %:   0.177756   MPKI: 0.329175
DTLB PREFETCH  REQUESTED:          0  ISSUED:          0  USEFUL:          0  USELESS:          0
DTLB USEFUL LOAD PREFETCHES:          0 PREFETCH ISSUED TO LOWER LEVEL:          0  ACCURACY: -nan
DTLB TIMELY PREFETCHES:          0 LATE PREFETCHES: 0 DROPPED PREFETCHES: 0
DTLB COMMIT LATE PREFETCHES: 0 NORMAL LATE: 0 MISSED OPPORTUNITY: 0 UNCOVERED: 0
DTLB PREFETCHES SAME FILL-ORIGIN LEVEL: 0 DIFFERENT FILL-ORIGIN LEVEL: 0
DTLB AVERAGE MISS LATENCY: 13.0412 cycles
DTLB AVERAGE MISS LATENCY LOAD: -nan cycles
DTLB AVERAGE MISS LATENCY PREFETCH: -nan cycles
DTLB AVERAGE MSHR OCCUPANCY: 0.00155939
DTLB MSHR FULL: 0
DTLB RQ	ACCESS:   40501447	FORWARD:          0	MERGED:    3464441	TO_CACHE:   37037006

STLB SPEC fills:          0  NON-SPEC fills:          0
STLB Test counter :          0
STLB Leapfrog:          0
STLB MSHR merge:          0
STLB TOTAL     ACCESS:    1911772  HIT:    1911025  MISS:        747  HIT %:    99.9609  MISS %:  0.0390737   MPKI: 0.003735
STLB LOAD TRANSLATION NON_SPEC    ACCESS:      65846  HIT:      65099  MISS:        747  HIT %:    98.8655  MISS %:    1.13447   MPKI: 0.003735
STLB TRANSLATION FROM L1D PREFETCHER NON_SPEC    ACCESS:    1845926  HIT:    1845926  MISS:          0  HIT %:        100  MISS %:          0   MPKI: 0
STLB PREFETCH  REQUESTED:          0  ISSUED:          0  USEFUL:          0  USELESS:          0
STLB USEFUL LOAD PREFETCHES:          0 PREFETCH ISSUED TO LOWER LEVEL:          0  ACCURACY: -nan
STLB TIMELY PREFETCHES:          0 LATE PREFETCHES: 0 DROPPED PREFETCHES: 0
STLB COMMIT LATE PREFETCHES: 0 NORMAL LATE: 0 MISSED OPPORTUNITY: 0 UNCOVERED: 0
STLB PREFETCHES SAME FILL-ORIGIN LEVEL: 0 DIFFERENT FILL-ORIGIN LEVEL: 0
STLB AVERAGE MISS LATENCY: 361.329 cycles
STLB AVERAGE MISS LATENCY LOAD: -nan cycles
STLB AVERAGE MISS LATENCY PREFETCH: -nan cycles
STLB AVERAGE MSHR OCCUPANCY: 8.99689e-05
STLB MSHR FULL: 0
STLB RQ	ACCESS:    6449163	FORWARD:          0	MERGED:    4537392	TO_CACHE:    1911771

STLB Hit, L1D data hit: 0
STLB Hit, L2C data hit: 0
STLB Hit, LLC data hit: 0
STLB Hit, LLC data miss: 0
STLB STLB hints to L2: 0
L0D SPEC fills:   17920186  NON-SPEC fills:          0
L0D TimeGuard Request with older TS:     243653 Restricted eviction:     154829 read:      32562
L0D Test counter :          0
L0D Leapfrog:          0
L0D MSHR merge:    2420172
L0D TOTAL     ACCESS:   35114181  HIT:   11839792  MISS:   23274389  HIT %:     33.718  MISS %:     66.282   MPKI: 116.372
L0D LOAD      TOTAL       ACCESS:   35114181  HIT:   11839792  MISS:   23274389  HIT %:     33.718  MISS %:     66.282   MPKI: 116.372
L0D LOAD      NON_SPEC    ACCESS:    5295015  HIT:      95641  MISS:    5199374  HIT %:    1.80625  MISS %:    98.1938   MPKI: 25.9969
L0D LOAD      SPEC        ACCESS:   29819166  HIT:   11744151  MISS:   18075015  HIT %:    39.3846  MISS %:    60.6154   MPKI: 90.3751
L0D PREFETCH  REQUESTED:          0  ISSUED:          0  USEFUL:          0  USELESS:          0
L0D USEFUL LOAD PREFETCHES:          0 PREFETCH ISSUED TO LOWER LEVEL:          0  ACCURACY: -nan
L0D TIMELY PREFETCHES:          0 LATE PREFETCHES: 0 DROPPED PREFETCHES: 0
L0D COMMIT LATE PREFETCHES: 0 NORMAL LATE: 0 MISSED OPPORTUNITY: 0 UNCOVERED: 23274389
L0D PREFETCHES SAME FILL-ORIGIN LEVEL: 0 DIFFERENT FILL-ORIGIN LEVEL: 0
L0D AVERAGE MISS LATENCY: 12.439 cycles
L0D AVERAGE MISS LATENCY LOAD: 12.439 cycles
L0D AVERAGE MISS LATENCY PREFETCH: -nan cycles
L0D AVERAGE MSHR OCCUPANCY: 0.774455
L0D MSHR FULL: 0
L0D RQ	ACCESS:   58954089	FORWARD:          0	MERGED:   21419737	TO_CACHE:   37534352
L0D WQ	ACCESS:    2967095	FORWARD:          0	MERGED:          0	TO_CACHE:    2967095

L1D SPEC fills:          0  NON-SPEC fills:     486613
L1D Test counter :          0
L1D Leapfrog:          0
L1D MSHR merge:      50149
L1D TOTAL     ACCESS:   66255838  HIT:   60723955  MISS:    5531883  HIT %:    91.6507  MISS %:    8.34928   MPKI: 27.6594
L1D LOAD      TOTAL       ACCESS:   23272707  HIT:   21500063  MISS:    1772644  HIT %:    92.3832  MISS %:    7.61684   MPKI: 8.86322
L1D LOAD      NON_SPEC    ACCESS:    5199213  HIT:    4712600  MISS:     486613  HIT %:    90.6406  MISS %:    9.35936   MPKI: 2.43306
L1D LOAD      SPEC        ACCESS:   18073494  HIT:   16787463  MISS:    1286031  HIT %:    92.8844  MISS %:    7.11556   MPKI: 6.43015
L1D RFO       NON_SPEC    ACCESS:    2947842  HIT:    2945394  MISS:       2448  HIT %:     99.917  MISS %:  0.0830438   MPKI: 0.01224
L1D PREFETCH  NON_SPEC    ACCESS:    6216523  HIT:    3745668  MISS:    2470855  HIT %:    60.2534  MISS %:    39.7466   MPKI: 12.3543
L1D COMMIT LOAD NON_SPEC    ACCESS:   16039486  HIT:   16035241  MISS:       4245  HIT %:    99.9735  MISS %:  0.0264659   MPKI: 0.021225
L1D COMMIT WRITE NON_SPEC    ACCESS:   17779280  HIT:   16497589  MISS:    1281691  HIT %:    92.7911  MISS %:     7.2089   MPKI: 6.40845
L1D PREFETCH  REQUESTED:    6663079  ISSUED:    6663079  USEFUL:    2218644  USELESS:     252261
L1D USEFUL LOAD PREFETCHES:    2218644 PREFETCH ISSUED TO LOWER LEVEL:    2562597  ACCURACY: 86.578
L1D TIMELY PREFETCHES:    2218644 LATE PREFETCHES: 48468 DROPPED PREFETCHES: 0
L1D COMMIT LATE PREFETCHES: 0 NORMAL LATE: 48468 MISSED OPPORTUNITY: 0 UNCOVERED: 1724176
L1D PREFETCHES SAME FILL-ORIGIN LEVEL: 2519420 DIFFERENT FILL-ORIGIN LEVEL: 43177
L1D AVERAGE MISS LATENCY: 77.1407 cycles
L1D AVERAGE MISS LATENCY LOAD: 96.7617 cycles
L1D AVERAGE MISS LATENCY PREFETCH: 103.139 cycles
L1D AVERAGE MSHR OCCUPANCY: 0.673084
L1D MSHR FULL: 6.40909e-06
L1D RQ	ACCESS:   59080269	FORWARD:          0	MERGED:   19760579	TO_CACHE:   39318968
L1D WQ	ACCESS:   20746375	FORWARD:        722	MERGED:      11216	TO_CACHE:   20735159
L1D PQ	ACCESS:    6663079	FORWARD:          0	MERGED:     279762	TO_CACHE:    6383317

L1D UNIQUE REGIONS ACCESSED: 0
L1D REGIONS CONFLICTS: 0
L1D Cross Page Prefetch Requests: 0
L1D Same Page Prefetch Requests: 7967988
L1D ROI Sum of L1D PQ occupancy: 87496293
L1D PREFETCHES PUSHED FROM L2C: 0
L1I SPEC fills:          0  NON-SPEC fills:          0
L1I Test counter :          0
L1I Leapfrog:          0
L1I MSHR merge:          8
L1I TOTAL     ACCESS:   37833851  HIT:   37833759  MISS:         92  HIT %:    99.9998  MISS %: 0.000243168   MPKI: 0.00046
L1I LOAD      TOTAL       ACCESS:   37833851  HIT:   37833759  MISS:         92  HIT %:    99.9998  MISS %: 0.000243168   MPKI: 0.00046
L1I LOAD      NON_SPEC    ACCESS:   37833851  HIT:   37833759  MISS:         92  HIT %:    99.9998  MISS %: 0.000243168   MPKI: 0.00046
L1I PREFETCH  REQUESTED:          0  ISSUED:          0  USEFUL:          0  USELESS:          0
L1I USEFUL LOAD PREFETCHES:          0 PREFETCH ISSUED TO LOWER LEVEL:          0  ACCURACY: -nan
L1I TIMELY PREFETCHES:          0 LATE PREFETCHES: 0 DROPPED PREFETCHES: 0
L1I COMMIT LATE PREFETCHES: 0 NORMAL LATE: 0 MISSED OPPORTUNITY: 0 UNCOVERED: 92
L1I PREFETCHES SAME FILL-ORIGIN LEVEL: 0 DIFFERENT FILL-ORIGIN LEVEL: 0
L1I AVERAGE MISS LATENCY: 204.228 cycles
L1I AVERAGE MISS LATENCY LOAD: 204.228 cycles
L1I AVERAGE MISS LATENCY PREFETCH: -nan cycles
L1I AVERAGE MSHR OCCUPANCY: 9.25097e-07
L1I MSHR FULL: 0
L1I RQ	ACCESS:   73023643	FORWARD:          0	MERGED:   35189783	TO_CACHE:   37833860

BTB SPEC fills:          0  NON-SPEC fills:          0
BTB Test counter :          0
BTB Leapfrog:          0
BTB MSHR merge:          0
BTB TOTAL     ACCESS:   32869649  HIT:   32861232  MISS:       8417  HIT %:    99.9744  MISS %:  0.0256072   MPKI: 0.042085
BTB BRANCH_DIRECT_JUMP	ACCESS:      10018  HIT:       9991  MISS:         27
BTB BRANCH_INDIRECT	ACCESS:          0  HIT:          0  MISS:          0
BTB BRANCH_CONDITIONAL	ACCESS:   30064978  HIT:   30064867  MISS:        111
BTB BRANCH_DIRECT_CALL	ACCESS:     706558  HIT:     706534  MISS:         24
BTB BRANCH_INDIRECT_CALL	ACCESS:     690769  HIT:     690752  MISS:         17
BTB BRANCH_RETURN	ACCESS:    1397326  HIT:    1389088  MISS:       8238
BTB BRANCH_OTHER ACCESS:          0  HIT:          0  MISS:          0

L2C SPEC fills:          0  NON-SPEC fills:     435808
L2C Test counter :          0
L2C Leapfrog:          0
L2C MSHR merge:         15
L2C TOTAL     ACCESS:    7348803  HIT:    2805077  MISS:    4543726  HIT %:    38.1705  MISS %:    61.8295   MPKI: 22.7186
L2C LOAD      TOTAL       ACCESS:    1724268  HIT:     163742  MISS:    1560526  HIT %:    9.49632  MISS %:    90.5037   MPKI: 7.80263
L2C LOAD      NON_SPEC    ACCESS:     484197  HIT:      48297  MISS:     435900  HIT %:    9.97466  MISS %:    90.0253   MPKI: 2.1795
L2C LOAD      SPEC        ACCESS:    1240071  HIT:     115445  MISS:    1124626  HIT %:    9.30955  MISS %:    90.6905   MPKI: 5.62313
L2C RFO       NON_SPEC    ACCESS:       2351  HIT:       1713  MISS:        638  HIT %:    72.8626  MISS %:    27.1374   MPKI: 0.00319
L2C PREFETCH  NON_SPEC    ACCESS:    2562510  HIT:     705061  MISS:    1857449  HIT %:    27.5145  MISS %:    72.4855   MPKI: 9.28724
L2C WRITEBACK NON_SPEC    ACCESS:       6684  HIT:       6684  MISS:          0  HIT %:        100  MISS %:          0   MPKI: 0
L2C CLEAN_EVICTION NON_SPEC    ACCESS:    3045020  HIT:    1923253  MISS:    1121767  HIT %:    63.1606  MISS %:    36.8394   MPKI: 5.60883
L2C COMMIT LOAD NON_SPEC    ACCESS:       4245  HIT:       1557  MISS:       2688  HIT %:    36.6784  MISS %:    63.3216   MPKI: 0.01344
L2C LOAD TRANSLATION NON_SPEC    ACCESS:       3725  HIT:       3067  MISS:        658  HIT %:    82.3356  MISS %:    17.6644   MPKI: 0.00329
L2C PREFETCH  REQUESTED:          0  ISSUED:          0  USEFUL:       8732  USELESS:    1850332
L2C USEFUL LOAD PREFETCHES:       8732 PREFETCH ISSUED TO LOWER LEVEL:    1857464  ACCURACY: 0.470103
L2C TIMELY PREFETCHES:       8732 LATE PREFETCHES: 15 DROPPED PREFETCHES: 0
L2C COMMIT LATE PREFETCHES: 0 NORMAL LATE: 15 MISSED OPPORTUNITY: 0 UNCOVERED: 1560511
L2C PREFETCHES SAME FILL-ORIGIN LEVEL: 17346 DIFFERENT FILL-ORIGIN LEVEL: 0
L2C AVERAGE MISS LATENCY: 82.1785 cycles
L2C AVERAGE MISS LATENCY LOAD: 93.8791 cycles
L2C AVERAGE MISS LATENCY PREFETCH: 121.945 cycles
L2C AVERAGE MSHR OCCUPANCY: 1.05188
L2C MSHR FULL: 0
L2C RQ	ACCESS:    1734589	FORWARD:          0	MERGED:          0	TO_CACHE:    1734589
L2C WQ	ACCESS:    3051704	FORWARD:          0	MERGED:          0	TO_CACHE:    3051704
L2C PQ	ACCESS:    2562597	FORWARD:          0	MERGED:          0	TO_CACHE:    2562597

L2C Instructions Evicting Data 92
L2C Translations Evicting Data 658
L2C Data Evicting Data 2296331
L2C Instructions Evicting Instructions 0
L2C Translations Evicting Instructions 0
L2C Data Evicting Instructions 36
L2C Instructions Evicting Translations 0
L2C Translations Evicting Translations 0
L2C Data Evicting Translations 216
L2C Dense regions hint from L2: 0
PSCL5 SPEC fills:          0  NON-SPEC fills:          0
PSCL5 Test counter :          0
PSCL5 Leapfrog:          0
PSCL5 MSHR merge:          0
PSCL5 TOTAL     ACCESS:          0  HIT:          0  MISS:          0  HIT %:       -nan  MISS %:       -nan   MPKI: 0
PSCL5 PREFETCH  REQUESTED:          0  ISSUED:          0  USEFUL:          0  USELESS:          0
PSCL5 USEFUL LOAD PREFETCHES:          0 PREFETCH ISSUED TO LOWER LEVEL:          0  ACCURACY: -nan
PSCL5 TIMELY PREFETCHES:          0 LATE PREFETCHES: 0 DROPPED PREFETCHES: 0
PSCL5 COMMIT LATE PREFETCHES: 0 NORMAL LATE: 0 MISSED OPPORTUNITY: 0 UNCOVERED: 0
PSCL5 PREFETCHES SAME FILL-ORIGIN LEVEL: 0 DIFFERENT FILL-ORIGIN LEVEL: 0

PSCL4 SPEC fills:          0  NON-SPEC fills:          0
PSCL4 Test counter :          0
PSCL4 Leapfrog:          0
PSCL4 MSHR merge:          0
PSCL4 TOTAL     ACCESS:          0  HIT:          0  MISS:          0  HIT %:       -nan  MISS %:       -nan   MPKI: 0
PSCL4 PREFETCH  REQUESTED:          0  ISSUED:          0  USEFUL:          0  USELESS:          0
PSCL4 USEFUL LOAD PREFETCHES:          0 PREFETCH ISSUED TO LOWER LEVEL:          0  ACCURACY: -nan
PSCL4 TIMELY PREFETCHES:          0 LATE PREFETCHES: 0 DROPPED PREFETCHES: 0
PSCL4 COMMIT LATE PREFETCHES: 0 NORMAL LATE: 0 MISSED OPPORTUNITY: 0 UNCOVERED: 0
PSCL4 PREFETCHES SAME FILL-ORIGIN LEVEL: 0 DIFFERENT FILL-ORIGIN LEVEL: 0

PSCL3 SPEC fills:          0  NON-SPEC fills:          0
PSCL3 Test counter :          0
PSCL3 Leapfrog:          0
PSCL3 MSHR merge:          0
PSCL3 TOTAL     ACCESS:          0  HIT:          0  MISS:          0  HIT %:       -nan  MISS %:       -nan   MPKI: 0
PSCL3 PREFETCH  REQUESTED:          0  ISSUED:          0  USEFUL:          0  USELESS:          0
PSCL3 USEFUL LOAD PREFETCHES:          0 PREFETCH ISSUED TO LOWER LEVEL:          0  ACCURACY: -nan
PSCL3 TIMELY PREFETCHES:          0 LATE PREFETCHES: 0 DROPPED PREFETCHES: 0
PSCL3 COMMIT LATE PREFETCHES: 0 NORMAL LATE: 0 MISSED OPPORTUNITY: 0 UNCOVERED: 0
PSCL3 PREFETCHES SAME FILL-ORIGIN LEVEL: 0 DIFFERENT FILL-ORIGIN LEVEL: 0

PSCL2 SPEC fills:          0  NON-SPEC fills:          0
PSCL2 Test counter :          0
PSCL2 Leapfrog:          0
PSCL2 MSHR merge:          0
PSCL2 TOTAL     ACCESS:          0  HIT:          0  MISS:          0  HIT %:       -nan  MISS %:       -nan   MPKI: 0
PSCL2 PREFETCH  REQUESTED:          0  ISSUED:          0  USEFUL:          0  USELESS:          0
PSCL2 USEFUL LOAD PREFETCHES:          0 PREFETCH ISSUED TO LOWER LEVEL:          0  ACCURACY: -nan
PSCL2 TIMELY PREFETCHES:          0 LATE PREFETCHES: 0 DROPPED PREFETCHES: 0
PSCL2 COMMIT LATE PREFETCHES: 0 NORMAL LATE: 0 MISSED OPPORTUNITY: 0 UNCOVERED: 0
PSCL2 PREFETCHES SAME FILL-ORIGIN LEVEL: 0 DIFFERENT FILL-ORIGIN LEVEL: 0

LLC SPEC fills:          0  NON-SPEC fills:     380996
LLC Test counter :          0
LLC Leapfrog:          0
LLC MSHR merge:          0
LLC TOTAL     ACCESS:    5847816  HIT:    2862376  MISS:    2985440  HIT %:    48.9478  MISS %:    51.0522   MPKI: 14.9272
LLC LOAD      TOTAL       ACCESS:    1560511  HIT:     746981  MISS:     813530  HIT %:    47.8677  MISS %:    52.1323   MPKI: 4.06765
LLC LOAD      NON_SPEC    ACCESS:     435892  HIT:      54804  MISS:     381088  HIT %:    12.5728  MISS %:    87.4272   MPKI: 1.90544
LLC LOAD      SPEC        ACCESS:    1124619  HIT:     692177  MISS:     432442  HIT %:    61.5477  MISS %:    38.4523   MPKI: 2.16221
LLC RFO       NON_SPEC    ACCESS:        638  HIT:          1  MISS:        637  HIT %:    0.15674  MISS %:    99.8433   MPKI: 0.003185
LLC PREFETCH  NON_SPEC    ACCESS:    1857464  HIT:     717991  MISS:    1139473  HIT %:    38.6544  MISS %:    61.3456   MPKI: 5.69736
LLC WRITEBACK NON_SPEC    ACCESS:       1037  HIT:       1037  MISS:          0  HIT %:        100  MISS %:          0   MPKI: 0
LLC CLEAN_EVICTION NON_SPEC    ACCESS:    2424820  HIT:    1394273  MISS:    1030547  HIT %:    57.5001  MISS %:    42.4999   MPKI: 5.15273
LLC COMMIT LOAD NON_SPEC    ACCESS:       2688  HIT:       2014  MISS:        674  HIT %:    74.9256  MISS %:    25.0744   MPKI: 0.00337
LLC LOAD TRANSLATION NON_SPEC    ACCESS:        658  HIT:         79  MISS:        579  HIT %:    12.0061  MISS %:    87.9939   MPKI: 0.002895
LLC PREFETCH  REQUESTED:          0  ISSUED:          0  USEFUL:       6823  USELESS:    1133804
LLC USEFUL LOAD PREFETCHES:       6823 PREFETCH ISSUED TO LOWER LEVEL:    1139473  ACCURACY: 0.598786
LLC TIMELY PREFETCHES:       6823 LATE PREFETCHES: 0 DROPPED PREFETCHES: 0
LLC COMMIT LATE PREFETCHES: 0 NORMAL LATE: 0 MISSED OPPORTUNITY: 0 UNCOVERED: 813530
LLC PREFETCHES SAME FILL-ORIGIN LEVEL: 0 DIFFERENT FILL-ORIGIN LEVEL: 0
LLC AVERAGE MISS LATENCY: 94.0697 cycles
LLC AVERAGE MISS LATENCY LOAD: 134.959 cycles
LLC AVERAGE MISS LATENCY PREFETCH: 149.875 cycles
LLC AVERAGE MSHR OCCUPANCY: 0.745903
LLC MSHR FULL: 0
LLC RQ	ACCESS:    1564495	FORWARD:          0	MERGED:          0	TO_CACHE:    1564495
LLC WQ	ACCESS:    2425857	FORWARD:          0	MERGED:          0	TO_CACHE:    2425857
LLC PQ	ACCESS:    1857464	FORWARD:          0	MERGED:          0	TO_CACHE:    1857464

LLC Dense regions hint to LLC: 0

RAW hits: 11178
Loads Generated: 58965269
Loads sent to L1D: 58954089
Stores Generated: 2967094
Stores sent to L1D: 2967095
Major fault: 0 Minor fault: 1462
Allocated PAGES: 1462
Total Load insts: 73705020
Total Non-spec loads: 5601265
Percentage of speculative loads: 92.4004

LeapFrogging counter: 0
Commit hits: 17779280 miss: 35805881
Commit hit %: 33.1795 miss %: 66.8205
Commits not translated: 0
Loads retired: 1772644
Stores retired: 2967095
Cache fills: 1772644
L1D response latency: 96.7617 cycles
Load retirement latency: 142.18 cycles
OOO test counter: 0
Discarded buffer inserts: 17779280 hits: 1920 hit %: 0.0107991
Filter prediction accuracy: -nan
Speculative prefetch buffer size: 0
CPU 0 L1D PC-based stride prefetcher final stats
Degree: 3

DRAM Statistics
 CHANNEL 0
 RQ ROW_BUFFER_HIT:     743281  ROW_BUFFER_MISS:    1211564
 DBUS_CONGESTED:       3123
 WQ ROW_BUFFER_HIT:     383756  ROW_BUFFER_MISS:    1244419  FULL:          0

 AVG_CONGESTED_CYCLE: 5
 All warmup complete: 2
Channel 0 Bank busy for read cycles: 0
Channel 0 Bank busy for write cycles: 0
Channel 0
Rank 0
0banks busy for read cycles: 64171201
0banks busy for write cycles: 215934
1banks busy for read cycles: 64970356
1banks busy for write cycles: 28316391
2banks busy for read cycles: 23788175
2banks busy for write cycles: 20940219
3banks busy for read cycles: 12339270
3banks busy for write cycles: 17460217
4banks busy for read cycles: 8715147
4banks busy for write cycles: 14467720
5banks busy for read cycles: 5325678
5banks busy for write cycles: 11144375
6banks busy for read cycles: 998352
6banks busy for write cycles: 6131275
7banks busy for read cycles: 264935
7banks busy for write cycles: 3111577
8banks busy for read cycles: 3244
8banks busy for write cycles: 1154093

CPU 0 Branch Prediction Accuracy: 99.9889% MPKI: 0.030745 Average ROB Occupancy at Mispredict: 107.619
Branch types
NOT_BRANCH: 144470819 72.2354%
BRANCH_DIRECT_JUMP: 10018 0.005009%
BRANCH_INDIRECT: 0 0%
BRANCH_CONDITIONAL: 52724204 26.3621%
BRANCH_DIRECT_CALL: 706558 0.353279%
BRANCH_INDIRECT_CALL: 690769 0.345384%
BRANCH_RETURN: 1397326 0.698663%
BRANCH_OTHER: 0 0%

DRAM PAGES: 1048576
Allocated PAGES: 1462
