
*** ChampSim Multicore Out-of-Order Simulator ***

Warmup Instructions: 50000000
Simulation Instructions: 200000000
Number of CPUs: 1
LLC sets: 2048
LLC ways: 16
L0D sets: 16
L0D ways: 2
ROB size: 352
LQ size: 128
SQ size: 72
Secure Berti: OFF
Berti: OFF
Berti Fill: OFF
On commit prefetching: OFF
Hit-based filter: OFF
Time-guarding: ON
Free-slotting: ON
Leap-frogging: ON
Train prefetcher on L0D bypass: OFF
No translation penalty for prefetchers: OFF
Prefetch to L0D only: OFF
Prefetch to L1D only: OFF
Clean evictions: ON
Commit loads: ON
Commit write: ON
Fill commit loads to L2C, LLC: ON
DRAM IO FREQUENCY: 6400
ROB SIZE: 352
Off-chip DRAM Size: 4096 MB Channels: 1 Width: 64-bit Data Rate: 6400 MT/s
CPU 0 runs /home/sumon/secure_berti/GhostMinion/../../traces/spec/654.roms_s-1613B.champsimtrace.xz
.xz
BTB has LRU replacement policy
ITLB has LRU replacement policy
DTLB has LRU replacement policy
STLB has LRU replacement policy
L1I has LRU replacement policy
L0D has LRU replacement policy
CPU 0 L1D IP-based stride prefetcher
L1D has LRU replacement policy
L2C has LRU replacement policy
LLC has LRU replacement policy
Heartbeat CPU 0 instructions: 10000001 cycles: 4746478 heartbeat IPC: 2.10683 cumulative IPC: 2.10683 (Simulation time: 0 hr 0 min 32 sec) 
Heartbeat CPU 0 instructions: 20000003 cycles: 9493098 heartbeat IPC: 2.10676 cumulative IPC: 2.10679 (Simulation time: 0 hr 1 min 23 sec) 
Heartbeat CPU 0 instructions: 30000000 cycles: 14239745 heartbeat IPC: 2.10675 cumulative IPC: 2.10678 (Simulation time: 0 hr 2 min 20 sec) 
Heartbeat CPU 0 instructions: 40000002 cycles: 18985328 heartbeat IPC: 2.10722 cumulative IPC: 2.10689 (Simulation time: 0 hr 3 min 18 sec) 
Heartbeat CPU 0 instructions: 50000003 cycles: 25136986 heartbeat IPC: 1.62558 cumulative IPC: 1.9891 (Simulation time: 0 hr 4 min 20 sec) 

Warmup complete CPU 0 instructions: 50000003 cycles: 25136986 (Simulation time: 0 hr 4 min 20 sec) 

Heartbeat CPU 0 instructions: 60000001 cycles: 40776047 heartbeat IPC: 0.639424 cumulative IPC: 0.639424 (Simulation time: 0 hr 5 min 23 sec) 
Heartbeat CPU 0 instructions: 70000003 cycles: 56406158 heartbeat IPC: 0.639791 cumulative IPC: 0.639608 (Simulation time: 0 hr 6 min 28 sec) 
Heartbeat CPU 0 instructions: 80000000 cycles: 72026970 heartbeat IPC: 0.640171 cumulative IPC: 0.639795 (Simulation time: 0 hr 7 min 35 sec) 
Heartbeat CPU 0 instructions: 90000001 cycles: 87640930 heartbeat IPC: 0.640453 cumulative IPC: 0.63996 (Simulation time: 0 hr 8 min 41 sec) 
Heartbeat CPU 0 instructions: 100000000 cycles: 103258355 heartbeat IPC: 0.64031 cumulative IPC: 0.64003 (Simulation time: 0 hr 9 min 45 sec) 
Heartbeat CPU 0 instructions: 110000000 cycles: 118875998 heartbeat IPC: 0.640301 cumulative IPC: 0.640075 (Simulation time: 0 hr 10 min 52 sec) 
Heartbeat CPU 0 instructions: 120000001 cycles: 140677713 heartbeat IPC: 0.45868 cumulative IPC: 0.605847 (Simulation time: 0 hr 12 min 20 sec) 
Heartbeat CPU 0 instructions: 130000000 cycles: 156287435 heartbeat IPC: 0.640626 cumulative IPC: 0.609986 (Simulation time: 0 hr 13 min 27 sec) 
Heartbeat CPU 0 instructions: 140000003 cycles: 171904397 heartbeat IPC: 0.64033 cumulative IPC: 0.613215 (Simulation time: 0 hr 14 min 35 sec) 
Heartbeat CPU 0 instructions: 150000001 cycles: 187520806 heartbeat IPC: 0.640352 cumulative IPC: 0.615825 (Simulation time: 0 hr 15 min 43 sec) 
Heartbeat CPU 0 instructions: 160000001 cycles: 203135002 heartbeat IPC: 0.640443 cumulative IPC: 0.617984 (Simulation time: 0 hr 16 min 52 sec) 
Heartbeat CPU 0 instructions: 170000002 cycles: 218750060 heartbeat IPC: 0.640408 cumulative IPC: 0.619793 (Simulation time: 0 hr 18 min 1 sec) 
Heartbeat CPU 0 instructions: 180000000 cycles: 234365462 heartbeat IPC: 0.640393 cumulative IPC: 0.62133 (Simulation time: 0 hr 19 min 10 sec) 
Heartbeat CPU 0 instructions: 190000000 cycles: 249981630 heartbeat IPC: 0.640362 cumulative IPC: 0.622652 (Simulation time: 0 hr 20 min 19 sec) 
Heartbeat CPU 0 instructions: 200000003 cycles: 272107302 heartbeat IPC: 0.451964 cumulative IPC: 0.60736 (Simulation time: 0 hr 21 min 37 sec) 
Heartbeat CPU 0 instructions: 210000001 cycles: 287726316 heartbeat IPC: 0.640245 cumulative IPC: 0.609316 (Simulation time: 0 hr 22 min 49 sec) 
Heartbeat CPU 0 instructions: 220000000 cycles: 303343517 heartbeat IPC: 0.64032 cumulative IPC: 0.611057 (Simulation time: 0 hr 24 min 3 sec) 
Heartbeat CPU 0 instructions: 230000003 cycles: 318960510 heartbeat IPC: 0.640328 cumulative IPC: 0.612613 (Simulation time: 0 hr 24 min 54 sec) 
Heartbeat CPU 0 instructions: 240000003 cycles: 334573574 heartbeat IPC: 0.640489 cumulative IPC: 0.614019 (Simulation time: 0 hr 25 min 35 sec) 
Heartbeat CPU 0 instructions: 250000000 cycles: 350189804 heartbeat IPC: 0.640359 cumulative IPC: 0.615285 (Simulation time: 0 hr 26 min 15 sec) 
Finished CPU 0 instructions: 200000000 cycles: 325052848 cumulative IPC: 0.615285 (Simulation time: 0 hr 26 min 15 sec) 
 Instruction ID: 250000065

ChampSim completed all CPUs

Region of Interest Statistics

CPU 0 cumulative IPC: 0.615285 instructions: 200000000 cycles: 325052848
ITLB SPEC fills:          0  NON-SPEC fills:          0
ITLB Test counter :          0
ITLB Leapfrog:          0
ITLB MSHR merge:          0
ITLB TOTAL     ACCESS:   30462870  HIT:   30462862  MISS:          8  HIT %:        100  MISS %: 2.62615e-05   MPKI: 4e-05
ITLB LOAD TRANSLATION NON_SPEC    ACCESS:   30462870  HIT:   30462862  MISS:          8  HIT %:        100  MISS %: 2.62615e-05   MPKI: 4e-05
ITLB PREFETCH  REQUESTED:          0  ISSUED:          0  USEFUL:          0  USELESS:          0
ITLB USEFUL LOAD PREFETCHES:          0 PREFETCH ISSUED TO LOWER LEVEL:          0  ACCURACY: -nan
ITLB TIMELY PREFETCHES:          0 LATE PREFETCHES: 0 DROPPED PREFETCHES: 0
ITLB COMMIT LATE PREFETCHES: 0 NORMAL LATE: 0 MISSED OPPORTUNITY: 0 UNCOVERED: 0
ITLB PREFETCHES SAME FILL-ORIGIN LEVEL: 0 DIFFERENT FILL-ORIGIN LEVEL: 0
ITLB AVERAGE MISS LATENCY: 386.875 cycles
ITLB AVERAGE MISS LATENCY LOAD: -nan cycles
ITLB AVERAGE MISS LATENCY PREFETCH: -nan cycles
ITLB AVERAGE MSHR OCCUPANCY: 0
ITLB MSHR FULL: 0
ITLB RQ	ACCESS:   39723599	FORWARD:          0	MERGED:    9260729	TO_CACHE:   30462870

DTLB SPEC fills:          0  NON-SPEC fills:          0
DTLB Test counter :          0
DTLB Leapfrog:          0
DTLB MSHR merge:          0
DTLB TOTAL     ACCESS:   44313598  HIT:   44301403  MISS:      12195  HIT %:    99.9725  MISS %:  0.0275198   MPKI: 0.060975
DTLB LOAD TRANSLATION NON_SPEC    ACCESS:   44313598  HIT:   44301403  MISS:      12195  HIT %:    99.9725  MISS %:  0.0275198   MPKI: 0.060975
DTLB PREFETCH  REQUESTED:          0  ISSUED:          0  USEFUL:          0  USELESS:          0
DTLB USEFUL LOAD PREFETCHES:          0 PREFETCH ISSUED TO LOWER LEVEL:          0  ACCURACY: -nan
DTLB TIMELY PREFETCHES:          0 LATE PREFETCHES: 0 DROPPED PREFETCHES: 0
DTLB COMMIT LATE PREFETCHES: 0 NORMAL LATE: 0 MISSED OPPORTUNITY: 0 UNCOVERED: 0
DTLB PREFETCHES SAME FILL-ORIGIN LEVEL: 0 DIFFERENT FILL-ORIGIN LEVEL: 0
DTLB AVERAGE MISS LATENCY: 150.254 cycles
DTLB AVERAGE MISS LATENCY LOAD: -nan cycles
DTLB AVERAGE MISS LATENCY PREFETCH: -nan cycles
DTLB AVERAGE MSHR OCCUPANCY: 0.0020836
DTLB MSHR FULL: 0
DTLB RQ	ACCESS:   53539953	FORWARD:          0	MERGED:    9204281	TO_CACHE:   44335672

STLB SPEC fills:          0  NON-SPEC fills:          0
STLB Test counter :          0
STLB Leapfrog:          0
STLB MSHR merge:          0
STLB TOTAL     ACCESS:     574981  HIT:     563625  MISS:      11356  HIT %:     98.025  MISS %:    1.97502   MPKI: 0.05678
STLB LOAD TRANSLATION NON_SPEC    ACCESS:      12203  HIT:        847  MISS:      11356  HIT %:    6.94092  MISS %:    93.0591   MPKI: 0.05678
STLB TRANSLATION FROM L1D PREFETCHER NON_SPEC    ACCESS:     562778  HIT:     562778  MISS:          0  HIT %:        100  MISS %:          0   MPKI: 0
STLB PREFETCH  REQUESTED:          0  ISSUED:          0  USEFUL:          0  USELESS:          0
STLB USEFUL LOAD PREFETCHES:          0 PREFETCH ISSUED TO LOWER LEVEL:          0  ACCURACY: -nan
STLB TIMELY PREFETCHES:          0 LATE PREFETCHES: 0 DROPPED PREFETCHES: 0
STLB COMMIT LATE PREFETCHES: 0 NORMAL LATE: 0 MISSED OPPORTUNITY: 0 UNCOVERED: 0
STLB PREFETCHES SAME FILL-ORIGIN LEVEL: 0 DIFFERENT FILL-ORIGIN LEVEL: 0
STLB AVERAGE MISS LATENCY: 151.931 cycles
STLB AVERAGE MISS LATENCY LOAD: -nan cycles
STLB AVERAGE MISS LATENCY PREFETCH: -nan cycles
STLB AVERAGE MSHR OCCUPANCY: 0.00909247
STLB MSHR FULL: 0
STLB RQ	ACCESS:    1645806	FORWARD:          0	MERGED:    1070825	TO_CACHE:     574981

STLB Hit, L1D data hit: 0
STLB Hit, L2C data hit: 0
STLB Hit, LLC data hit: 0
STLB Hit, LLC data miss: 0
STLB STLB hints to L2: 0
L0D SPEC fills:   16217838  NON-SPEC fills:          0
L0D TimeGuard Request with older TS:       8761 Restricted eviction:        247 read:     869721
L0D Test counter :          0
L0D Leapfrog:          0
L0D MSHR merge:     302631
L0D TOTAL     ACCESS:   31524954  HIT:    1950365  MISS:   29574589  HIT %:    6.18673  MISS %:    93.8133   MPKI: 147.873
L0D LOAD      TOTAL       ACCESS:   31524954  HIT:    1950365  MISS:   29574589  HIT %:    6.18673  MISS %:    93.8133   MPKI: 147.873
L0D LOAD      NON_SPEC    ACCESS:   13366560  HIT:      10056  MISS:   13356504  HIT %:  0.0752325  MISS %:    99.9248   MPKI: 66.7825
L0D LOAD      SPEC        ACCESS:   18158394  HIT:    1940309  MISS:   16218085  HIT %:    10.6855  MISS %:    89.3145   MPKI: 81.0904
L0D PREFETCH  REQUESTED:          0  ISSUED:          0  USEFUL:          0  USELESS:          0
L0D USEFUL LOAD PREFETCHES:          0 PREFETCH ISSUED TO LOWER LEVEL:          0  ACCURACY: -nan
L0D TIMELY PREFETCHES:          0 LATE PREFETCHES: 0 DROPPED PREFETCHES: 0
L0D COMMIT LATE PREFETCHES: 0 NORMAL LATE: 0 MISSED OPPORTUNITY: 0 UNCOVERED: 29574589
L0D PREFETCHES SAME FILL-ORIGIN LEVEL: 0 DIFFERENT FILL-ORIGIN LEVEL: 0
L0D AVERAGE MISS LATENCY: 5.84484 cycles
L0D AVERAGE MISS LATENCY LOAD: 5.84484 cycles
L0D AVERAGE MISS LATENCY PREFETCH: -nan cycles
L0D AVERAGE MSHR OCCUPANCY: 0.547387
L0D MSHR FULL: 0
L0D RQ	ACCESS:   40096878	FORWARD:          0	MERGED:    8269298	TO_CACHE:   31827580
L0D WQ	ACCESS:   21712373	FORWARD:          0	MERGED:          0	TO_CACHE:   21712373

L1D SPEC fills:          0  NON-SPEC fills:      17513
L1D Test counter :          0
L1D Leapfrog:          0
L1D MSHR merge:      57085
L1D TOTAL     ACCESS:   76033170  HIT:   75387029  MISS:     646141  HIT %:    99.1502  MISS %:   0.849815   MPKI: 3.2307
L1D LOAD      TOTAL       ACCESS:   29574574  HIT:   29478640  MISS:      95934  HIT %:    99.6756  MISS %:    0.32438   MPKI: 0.47967
L1D LOAD      NON_SPEC    ACCESS:   13356501  HIT:   13338988  MISS:      17513  HIT %:    99.8689  MISS %:    0.13112   MPKI: 0.087565
L1D LOAD      SPEC        ACCESS:   16218073  HIT:   16139652  MISS:      78421  HIT %:    99.5165  MISS %:   0.483541   MPKI: 0.392105
L1D RFO       NON_SPEC    ACCESS:   19404298  HIT:   19181171  MISS:     223127  HIT %:    98.8501  MISS %:    1.14988   MPKI: 1.11563
L1D PREFETCH  NON_SPEC    ACCESS:    1344482  HIT:    1092532  MISS:     251950  HIT %:    81.2604  MISS %:    18.7396   MPKI: 1.25975
L1D COMMIT LOAD NON_SPEC    ACCESS:    9497328  HIT:    9496817  MISS:        511  HIT %:    99.9946  MISS %: 0.00538046   MPKI: 0.002555
L1D COMMIT WRITE NON_SPEC    ACCESS:   16212488  HIT:   16137869  MISS:      74619  HIT %:    99.5397  MISS %:   0.460256   MPKI: 0.373095
L1D PREFETCH  REQUESTED:    1683226  ISSUED:    1683226  USEFUL:     243231  USELESS:       8717
L1D USEFUL LOAD PREFETCHES:     243231 PREFETCH ISSUED TO LOWER LEVEL:     362002  ACCURACY: 67.1905
L1D TIMELY PREFETCHES:     243231 LATE PREFETCHES: 57071 DROPPED PREFETCHES: 0
L1D COMMIT LATE PREFETCHES: 0 NORMAL LATE: 57071 MISSED OPPORTUNITY: 0 UNCOVERED: 38863
L1D PREFETCHES SAME FILL-ORIGIN LEVEL: 309021 DIFFERENT FILL-ORIGIN LEVEL: 52981
L1D AVERAGE MISS LATENCY: 232.651 cycles
L1D AVERAGE MISS LATENCY LOAD: 217.915 cycles
L1D AVERAGE MISS LATENCY PREFETCH: 239.265 cycles
L1D AVERAGE MSHR OCCUPANCY: 0.298703
L1D MSHR FULL: 5.60467e-05
L1D RQ	ACCESS:   40090482	FORWARD:          0	MERGED:     905137	TO_CACHE:   39072895
L1D WQ	ACCESS:   37926609	FORWARD:     112450	MERGED:    1415366	TO_CACHE:   36511243
L1D PQ	ACCESS:    1683226	FORWARD:          0	MERGED:      49623	TO_CACHE:    1633603

L1D UNIQUE REGIONS ACCESSED: 0
L1D REGIONS CONFLICTS: 0
L1D Cross Page Prefetch Requests: 0
L1D Same Page Prefetch Requests: 2247609
L1D ROI Sum of L1D PQ occupancy: 21881919
L1D PREFETCHES PUSHED FROM L2C: 0
L1I SPEC fills:          0  NON-SPEC fills:          0
L1I Test counter :          0
L1I Leapfrog:          0
L1I MSHR merge:         16
L1I TOTAL     ACCESS:   39723581  HIT:   39723475  MISS:        106  HIT %:    99.9997  MISS %: 0.000266844   MPKI: 0.00053
L1I LOAD      TOTAL       ACCESS:   39723581  HIT:   39723475  MISS:        106  HIT %:    99.9997  MISS %: 0.000266844   MPKI: 0.00053
L1I LOAD      NON_SPEC    ACCESS:   39723581  HIT:   39723475  MISS:        106  HIT %:    99.9997  MISS %: 0.000266844   MPKI: 0.00053
L1I PREFETCH  REQUESTED:          0  ISSUED:          0  USEFUL:          0  USELESS:          0
L1I USEFUL LOAD PREFETCHES:          0 PREFETCH ISSUED TO LOWER LEVEL:          0  ACCURACY: -nan
L1I TIMELY PREFETCHES:          0 LATE PREFETCHES: 0 DROPPED PREFETCHES: 0
L1I COMMIT LATE PREFETCHES: 0 NORMAL LATE: 0 MISSED OPPORTUNITY: 0 UNCOVERED: 106
L1I PREFETCHES SAME FILL-ORIGIN LEVEL: 0 DIFFERENT FILL-ORIGIN LEVEL: 0
L1I AVERAGE MISS LATENCY: 204.434 cycles
L1I AVERAGE MISS LATENCY LOAD: 204.434 cycles
L1I AVERAGE MISS LATENCY PREFETCH: -nan cycles
L1I AVERAGE MSHR OCCUPANCY: 1.53561e-06
L1I MSHR FULL: 0
L1I RQ	ACCESS:   57883918	FORWARD:          0	MERGED:   18160319	TO_CACHE:   39723599

BTB SPEC fills:          0  NON-SPEC fills:          0
BTB Test counter :          0
BTB Leapfrog:          0
BTB MSHR merge:          0
BTB TOTAL     ACCESS:   13350901  HIT:   11926181  MISS:    1424720  HIT %:    89.3287  MISS %:    10.6713   MPKI: 7.1236
BTB BRANCH_DIRECT_JUMP	ACCESS:    1424895  HIT:    1424857  MISS:         38
BTB BRANCH_INDIRECT	ACCESS:         16  HIT:         15  MISS:          1
BTB BRANCH_CONDITIONAL	ACCESS:    6226070  HIT:    6225943  MISS:        127
BTB BRANCH_DIRECT_CALL	ACCESS:    2849960  HIT:    2849915  MISS:         45
BTB BRANCH_INDIRECT_CALL	ACCESS:          0  HIT:          0  MISS:          0
BTB BRANCH_RETURN	ACCESS:    2849960  HIT:    1425451  MISS:    1424509
BTB BRANCH_OTHER ACCESS:          0  HIT:          0  MISS:          0

L2C SPEC fills:          0  NON-SPEC fills:       4949
L2C Test counter :          0
L2C Leapfrog:          0
L2C MSHR merge:       3207
L2C TOTAL     ACCESS:    1136978  HIT:     543276  MISS:     593702  HIT %:    47.7825  MISS %:    52.2175   MPKI: 2.96851
L2C LOAD      TOTAL       ACCESS:      38969  HIT:      11435  MISS:      27534  HIT %:    29.3438  MISS %:    70.6562   MPKI: 0.13767
L2C LOAD      NON_SPEC    ACCESS:       5629  HIT:        574  MISS:       5055  HIT %:    10.1972  MISS %:    89.8028   MPKI: 0.025275
L2C LOAD      SPEC        ACCESS:      33340  HIT:      10861  MISS:      22479  HIT %:    32.5765  MISS %:    67.4235   MPKI: 0.112395
L2C RFO       NON_SPEC    ACCESS:     223127  HIT:          0  MISS:     223127  HIT %:          0  MISS %:        100   MPKI: 1.11563
L2C PREFETCH  NON_SPEC    ACCESS:     334391  HIT:      15638  MISS:     318753  HIT %:    4.67656  MISS %:    95.3234   MPKI: 1.59377
L2C WRITEBACK NON_SPEC    ACCESS:     223128  HIT:     222727  MISS:        401  HIT %:    99.8203  MISS %:   0.179717   MPKI: 0.002005
L2C CLEAN_EVICTION NON_SPEC    ACCESS:     260083  HIT:     238363  MISS:      21720  HIT %:    91.6488  MISS %:    8.35118   MPKI: 0.1086
L2C COMMIT LOAD NON_SPEC    ACCESS:        511  HIT:        481  MISS:         30  HIT %:    94.1292  MISS %:    5.87084   MPKI: 0.00015
L2C LOAD TRANSLATION NON_SPEC    ACCESS:      56769  HIT:      54632  MISS:       2137  HIT %:    96.2356  MISS %:    3.76438   MPKI: 0.010685
L2C PREFETCH  REQUESTED:          0  ISSUED:          0  USEFUL:      11132  USELESS:     307836
L2C USEFUL LOAD PREFETCHES:      11132 PREFETCH ISSUED TO LOWER LEVEL:     321960  ACCURACY: 3.45757
L2C TIMELY PREFETCHES:      11132 LATE PREFETCHES: 3207 DROPPED PREFETCHES: 0
L2C COMMIT LATE PREFETCHES: 0 NORMAL LATE: 3207 MISSED OPPORTUNITY: 0 UNCOVERED: 24327
L2C PREFETCHES SAME FILL-ORIGIN LEVEL: 38939 DIFFERENT FILL-ORIGIN LEVEL: 0
L2C AVERAGE MISS LATENCY: 279.545 cycles
L2C AVERAGE MISS LATENCY LOAD: 255.907 cycles
L2C AVERAGE MISS LATENCY PREFETCH: 290.228 cycles
L2C AVERAGE MSHR OCCUPANCY: 2.69707
L2C MSHR FULL: 0
L2C RQ	ACCESS:     319376	FORWARD:          0	MERGED:          0	TO_CACHE:     319376
L2C WQ	ACCESS:     483211	FORWARD:          0	MERGED:          0	TO_CACHE:     483211
L2C PQ	ACCESS:     362002	FORWARD:          0	MERGED:          0	TO_CACHE:     362002

L2C Instructions Evicting Data 106
L2C Translations Evicting Data 2127
L2C Data Evicting Data 544697
L2C Instructions Evicting Instructions 0
L2C Translations Evicting Instructions 0
L2C Data Evicting Instructions 143
L2C Instructions Evicting Translations 0
L2C Translations Evicting Translations 10
L2C Data Evicting Translations 2019
L2C Dense regions hint from L2: 0
PSCL5 SPEC fills:          0  NON-SPEC fills:          0
PSCL5 Test counter :          0
PSCL5 Leapfrog:          0
PSCL5 MSHR merge:          0
PSCL5 TOTAL     ACCESS:          0  HIT:          0  MISS:          0  HIT %:       -nan  MISS %:       -nan   MPKI: 0
PSCL5 PREFETCH  REQUESTED:          0  ISSUED:          0  USEFUL:          0  USELESS:          0
PSCL5 USEFUL LOAD PREFETCHES:          0 PREFETCH ISSUED TO LOWER LEVEL:          0  ACCURACY: -nan
PSCL5 TIMELY PREFETCHES:          0 LATE PREFETCHES: 0 DROPPED PREFETCHES: 0
PSCL5 COMMIT LATE PREFETCHES: 0 NORMAL LATE: 0 MISSED OPPORTUNITY: 0 UNCOVERED: 0
PSCL5 PREFETCHES SAME FILL-ORIGIN LEVEL: 0 DIFFERENT FILL-ORIGIN LEVEL: 0

PSCL4 SPEC fills:          0  NON-SPEC fills:          0
PSCL4 Test counter :          0
PSCL4 Leapfrog:          0
PSCL4 MSHR merge:          0
PSCL4 TOTAL     ACCESS:          0  HIT:          0  MISS:          0  HIT %:       -nan  MISS %:       -nan   MPKI: 0
PSCL4 PREFETCH  REQUESTED:          0  ISSUED:          0  USEFUL:          0  USELESS:          0
PSCL4 USEFUL LOAD PREFETCHES:          0 PREFETCH ISSUED TO LOWER LEVEL:          0  ACCURACY: -nan
PSCL4 TIMELY PREFETCHES:          0 LATE PREFETCHES: 0 DROPPED PREFETCHES: 0
PSCL4 COMMIT LATE PREFETCHES: 0 NORMAL LATE: 0 MISSED OPPORTUNITY: 0 UNCOVERED: 0
PSCL4 PREFETCHES SAME FILL-ORIGIN LEVEL: 0 DIFFERENT FILL-ORIGIN LEVEL: 0

PSCL3 SPEC fills:          0  NON-SPEC fills:          0
PSCL3 Test counter :          0
PSCL3 Leapfrog:          0
PSCL3 MSHR merge:          0
PSCL3 TOTAL     ACCESS:          0  HIT:          0  MISS:          0  HIT %:       -nan  MISS %:       -nan   MPKI: 0
PSCL3 PREFETCH  REQUESTED:          0  ISSUED:          0  USEFUL:          0  USELESS:          0
PSCL3 USEFUL LOAD PREFETCHES:          0 PREFETCH ISSUED TO LOWER LEVEL:          0  ACCURACY: -nan
PSCL3 TIMELY PREFETCHES:          0 LATE PREFETCHES: 0 DROPPED PREFETCHES: 0
PSCL3 COMMIT LATE PREFETCHES: 0 NORMAL LATE: 0 MISSED OPPORTUNITY: 0 UNCOVERED: 0
PSCL3 PREFETCHES SAME FILL-ORIGIN LEVEL: 0 DIFFERENT FILL-ORIGIN LEVEL: 0

PSCL2 SPEC fills:          0  NON-SPEC fills:          0
PSCL2 Test counter :          0
PSCL2 Leapfrog:          0
PSCL2 MSHR merge:          0
PSCL2 TOTAL     ACCESS:          0  HIT:          0  MISS:          0  HIT %:       -nan  MISS %:       -nan   MPKI: 0
PSCL2 PREFETCH  REQUESTED:          0  ISSUED:          0  USEFUL:          0  USELESS:          0
PSCL2 USEFUL LOAD PREFETCHES:          0 PREFETCH ISSUED TO LOWER LEVEL:          0  ACCURACY: -nan
PSCL2 TIMELY PREFETCHES:          0 LATE PREFETCHES: 0 DROPPED PREFETCHES: 0
PSCL2 COMMIT LATE PREFETCHES: 0 NORMAL LATE: 0 MISSED OPPORTUNITY: 0 UNCOVERED: 0
PSCL2 PREFETCHES SAME FILL-ORIGIN LEVEL: 0 DIFFERENT FILL-ORIGIN LEVEL: 0

LLC SPEC fills:          0  NON-SPEC fills:       4767
LLC Test counter :          0
LLC Leapfrog:          0
LLC MSHR merge:          0
LLC TOTAL     ACCESS:    1054604  HIT:     464167  MISS:     590437  HIT %:    44.0134  MISS %:    55.9866   MPKI: 2.95219
LLC LOAD      TOTAL       ACCESS:      24327  HIT:        263  MISS:      24064  HIT %:     1.0811  MISS %:    98.9189   MPKI: 0.12032
LLC LOAD      NON_SPEC    ACCESS:       4873  HIT:          0  MISS:       4873  HIT %:          0  MISS %:        100   MPKI: 0.024365
LLC LOAD      SPEC        ACCESS:      19454  HIT:        263  MISS:      19191  HIT %:    1.35191  MISS %:    98.6481   MPKI: 0.095955
LLC RFO       NON_SPEC    ACCESS:     223127  HIT:          1  MISS:     223126  HIT %: 0.000448175  MISS %:    99.9996   MPKI: 1.11563
LLC PREFETCH  NON_SPEC    ACCESS:     321960  HIT:          0  MISS:     321960  HIT %:          0  MISS %:        100   MPKI: 1.6098
LLC WRITEBACK NON_SPEC    ACCESS:     222749  HIT:     222348  MISS:        401  HIT %:      99.82  MISS %:   0.180023   MPKI: 0.002005
LLC CLEAN_EVICTION NON_SPEC    ACCESS:     260274  HIT:     241541  MISS:      18733  HIT %:    92.8026  MISS %:    7.19742   MPKI: 0.093665
LLC COMMIT LOAD NON_SPEC    ACCESS:         30  HIT:          9  MISS:         21  HIT %:         30  MISS %:         70   MPKI: 0.000105
LLC LOAD TRANSLATION NON_SPEC    ACCESS:       2137  HIT:          5  MISS:       2132  HIT %:   0.233973  MISS %:     99.766   MPKI: 0.01066
LLC PREFETCH  REQUESTED:          0  ISSUED:          0  USEFUL:        272  USELESS:     323110
LLC USEFUL LOAD PREFETCHES:        272 PREFETCH ISSUED TO LOWER LEVEL:     321960  ACCURACY: 0.0844825
LLC TIMELY PREFETCHES:        272 LATE PREFETCHES: 0 DROPPED PREFETCHES: 0
LLC COMMIT LATE PREFETCHES: 0 NORMAL LATE: 0 MISSED OPPORTUNITY: 0 UNCOVERED: 24064
LLC PREFETCHES SAME FILL-ORIGIN LEVEL: 0 DIFFERENT FILL-ORIGIN LEVEL: 0
LLC AVERAGE MISS LATENCY: 253.922 cycles
LLC AVERAGE MISS LATENCY LOAD: 232.773 cycles
LLC AVERAGE MISS LATENCY PREFETCH: 263.223 cycles
LLC AVERAGE MSHR OCCUPANCY: 2.37464
LLC MSHR FULL: 0
LLC RQ	ACCESS:     249621	FORWARD:          0	MERGED:          0	TO_CACHE:     249621
LLC WQ	ACCESS:     483023	FORWARD:          0	MERGED:          0	TO_CACHE:     483023
LLC PQ	ACCESS:     321960	FORWARD:          0	MERGED:          0	TO_CACHE:     321960

LLC Dense regions hint to LLC: 0

RAW hits: 5673469
Loads Generated: 45770347
Loads sent to L1D: 40096878
Stores Generated: 21712374
Stores sent to L1D: 21712373
Major fault: 0 Minor fault: 7557
Allocated PAGES: 7557
Total Load insts: 49375575
Total Non-spec loads: 15195963
Percentage of speculative loads: 69.2237

LeapFrogging counter: 0
Commit hits: 16214252 miss: 10515897
Commit hit %: 60.659 miss %: 39.341
Commits not translated: 0
Loads retired: 95934
Stores retired: 21712373
Cache fills: 95934
L1D response latency: 217.915 cycles
Load retirement latency: 303.414 cycles
OOO test counter: 0
Discarded buffer inserts: 16214252 hits: 1342 hit %: 0.00827667
Filter prediction accuracy: -nan
Speculative prefetch buffer size: 0
CPU 0 L1D PC-based stride prefetcher final stats
Degree: 3

DRAM Statistics
 CHANNEL 0
 RQ ROW_BUFFER_HIT:      24211  ROW_BUFFER_MISS:     547092
 DBUS_CONGESTED:         24
 WQ ROW_BUFFER_HIT:      87945  ROW_BUFFER_MISS:     394562  FULL:          0

 AVG_CONGESTED_CYCLE: 4
 All warmup complete: 2
Channel 0 Bank busy for read cycles: 0
Channel 0 Bank busy for write cycles: 0
Channel 0
Rank 0
0banks busy for read cycles: 240678842
0banks busy for write cycles: 178875
1banks busy for read cycles: 32735336
1banks busy for write cycles: 29677807
2banks busy for read cycles: 3172874
2banks busy for write cycles: 1298202
3banks busy for read cycles: 3065785
3banks busy for write cycles: 454491
4banks busy for read cycles: 2394181
4banks busy for write cycles: 231137
5banks busy for read cycles: 2591551
5banks busy for write cycles: 132439
6banks busy for read cycles: 1232179
6banks busy for write cycles: 61872
7banks busy for read cycles: 597822
7banks busy for write cycles: 304959
8banks busy for read cycles: 630649
8banks busy for write cycles: 5613848

CPU 0 Branch Prediction Accuracy: 99.9797% MPKI: 0.020805 Average ROB Occupancy at Mispredict: 80.5105
Branch types
NOT_BRANCH: 179514591 89.7573%
BRANCH_DIRECT_JUMP: 1424895 0.712448%
BRANCH_INDIRECT: 16 8e-06%
BRANCH_CONDITIONAL: 13360262 6.68013%
BRANCH_DIRECT_CALL: 2849960 1.42498%
BRANCH_INDIRECT_CALL: 0 0%
BRANCH_RETURN: 2849960 1.42498%
BRANCH_OTHER: 0 0%

DRAM PAGES: 1048576
Allocated PAGES: 7557
