
*** ChampSim Multicore Out-of-Order Simulator ***

Warmup Instructions: 50000000
Simulation Instructions: 200000000
Number of CPUs: 1
LLC sets: 2048
LLC ways: 16
L0D sets: 16
L0D ways: 2
ROB size: 352
LQ size: 128
SQ size: 72
Secure Berti: OFF
Berti: OFF
Berti Fill: OFF
On commit prefetching: OFF
Hit-based filter: OFF
Time-guarding: ON
Free-slotting: ON
Leap-frogging: ON
Train prefetcher on L0D bypass: OFF
No translation penalty for prefetchers: OFF
Prefetch to L0D only: OFF
Prefetch to L1D only: OFF
Clean evictions: ON
Commit loads: ON
Commit write: ON
Fill commit loads to L2C, LLC: ON
DRAM IO FREQUENCY: 6400
ROB SIZE: 352
Off-chip DRAM Size: 4096 MB Channels: 1 Width: 64-bit Data Rate: 6400 MT/s
CPU 0 runs /home/sumon/secure_berti/GhostMinion/../../traces/spec/654.roms_s-1390B.champsimtrace.xz
.xz
BTB has LRU replacement policy
ITLB has LRU replacement policy
DTLB has LRU replacement policy
STLB has LRU replacement policy
L1I has LRU replacement policy
L0D has LRU replacement policy
CPU 0 L1D IP-based stride prefetcher
L1D has LRU replacement policy
L2C has LRU replacement policy
LLC has LRU replacement policy
Heartbeat CPU 0 instructions: 10000001 cycles: 4224180 heartbeat IPC: 2.36732 cumulative IPC: 2.36732 (Simulation time: 0 hr 0 min 52 sec) 
Heartbeat CPU 0 instructions: 20000000 cycles: 7867919 heartbeat IPC: 2.74443 cumulative IPC: 2.54197 (Simulation time: 0 hr 1 min 31 sec) 
Heartbeat CPU 0 instructions: 30000001 cycles: 11284641 heartbeat IPC: 2.92678 cumulative IPC: 2.65848 (Simulation time: 0 hr 2 min 5 sec) 
Heartbeat CPU 0 instructions: 40000002 cycles: 15328668 heartbeat IPC: 2.47278 cumulative IPC: 2.60949 (Simulation time: 0 hr 3 min 19 sec) 
Heartbeat CPU 0 instructions: 50000000 cycles: 19964190 heartbeat IPC: 2.15725 cumulative IPC: 2.50448 (Simulation time: 0 hr 4 min 10 sec) 

Warmup complete CPU 0 instructions: 50000001 cycles: 19964191 (Simulation time: 0 hr 4 min 10 sec) 

Heartbeat CPU 0 instructions: 60000001 cycles: 32793718 heartbeat IPC: 0.779452 cumulative IPC: 0.779452 (Simulation time: 0 hr 4 min 59 sec) 
Heartbeat CPU 0 instructions: 70000003 cycles: 44296729 heartbeat IPC: 0.869338 cumulative IPC: 0.821945 (Simulation time: 0 hr 5 min 58 sec) 
Heartbeat CPU 0 instructions: 80000002 cycles: 55800409 heartbeat IPC: 0.869287 cumulative IPC: 0.837142 (Simulation time: 0 hr 6 min 56 sec) 
Heartbeat CPU 0 instructions: 90000003 cycles: 70226794 heartbeat IPC: 0.693174 cumulative IPC: 0.79582 (Simulation time: 0 hr 8 min 21 sec) 
Heartbeat CPU 0 instructions: 100000000 cycles: 84957919 heartbeat IPC: 0.678835 cumulative IPC: 0.769305 (Simulation time: 0 hr 9 min 25 sec) 
Heartbeat CPU 0 instructions: 110000000 cycles: 100022484 heartbeat IPC: 0.663809 cumulative IPC: 0.749454 (Simulation time: 0 hr 10 min 10 sec) 
Heartbeat CPU 0 instructions: 120000001 cycles: 112469275 heartbeat IPC: 0.80342 cumulative IPC: 0.756715 (Simulation time: 0 hr 10 min 46 sec) 
Heartbeat CPU 0 instructions: 130000000 cycles: 124936026 heartbeat IPC: 0.802134 cumulative IPC: 0.762109 (Simulation time: 0 hr 11 min 24 sec) 
Heartbeat CPU 0 instructions: 140000001 cycles: 146148684 heartbeat IPC: 0.471417 cumulative IPC: 0.713241 (Simulation time: 0 hr 12 min 32 sec) 
Heartbeat CPU 0 instructions: 150000000 cycles: 163424681 heartbeat IPC: 0.578838 cumulative IPC: 0.697056 (Simulation time: 0 hr 13 min 28 sec) 
Heartbeat CPU 0 instructions: 160000000 cycles: 178334849 heartbeat IPC: 0.670683 cumulative IPC: 0.694573 (Simulation time: 0 hr 14 min 40 sec) 
Heartbeat CPU 0 instructions: 170000002 cycles: 192596568 heartbeat IPC: 0.701178 cumulative IPC: 0.695119 (Simulation time: 0 hr 15 min 52 sec) 
Heartbeat CPU 0 instructions: 180000003 cycles: 206722096 heartbeat IPC: 0.707938 cumulative IPC: 0.696088 (Simulation time: 0 hr 17 min 0 sec) 
Heartbeat CPU 0 instructions: 190000000 cycles: 221597637 heartbeat IPC: 0.672244 cumulative IPC: 0.694329 (Simulation time: 0 hr 18 min 18 sec) 
Heartbeat CPU 0 instructions: 200000002 cycles: 240676312 heartbeat IPC: 0.524146 cumulative IPC: 0.679618 (Simulation time: 0 hr 19 min 14 sec) 
Heartbeat CPU 0 instructions: 210000001 cycles: 255734701 heartbeat IPC: 0.664082 cumulative IPC: 0.678626 (Simulation time: 0 hr 20 min 19 sec) 
Heartbeat CPU 0 instructions: 220000000 cycles: 274762355 heartbeat IPC: 0.525551 cumulative IPC: 0.667195 (Simulation time: 0 hr 21 min 22 sec) 
Heartbeat CPU 0 instructions: 230000002 cycles: 295437316 heartbeat IPC: 0.483677 cumulative IPC: 0.653421 (Simulation time: 0 hr 22 min 15 sec) 
Heartbeat CPU 0 instructions: 240000002 cycles: 310690607 heartbeat IPC: 0.655596 cumulative IPC: 0.653535 (Simulation time: 0 hr 23 min 15 sec) 
Heartbeat CPU 0 instructions: 250000003 cycles: 323756086 heartbeat IPC: 0.765376 cumulative IPC: 0.658345 (Simulation time: 0 hr 24 min 15 sec) 
Finished CPU 0 instructions: 200000002 cycles: 303791895 cumulative IPC: 0.658345 (Simulation time: 0 hr 24 min 15 sec) 
 Instruction ID: 250000221

ChampSim completed all CPUs

Region of Interest Statistics

CPU 0 cumulative IPC: 0.658345 instructions: 200000002 cycles: 303791895
ITLB SPEC fills:          0  NON-SPEC fills:          0
ITLB Test counter :          0
ITLB Leapfrog:          0
ITLB MSHR merge:          0
ITLB TOTAL     ACCESS:   29842079  HIT:   29842072  MISS:          7  HIT %:        100  MISS %: 2.34568e-05   MPKI: 3.5e-05
ITLB LOAD TRANSLATION NON_SPEC    ACCESS:   29842079  HIT:   29842072  MISS:          7  HIT %:        100  MISS %: 2.34568e-05   MPKI: 3.5e-05
ITLB PREFETCH  REQUESTED:          0  ISSUED:          0  USEFUL:          0  USELESS:          0
ITLB USEFUL LOAD PREFETCHES:          0 PREFETCH ISSUED TO LOWER LEVEL:          0  ACCURACY: -nan
ITLB TIMELY PREFETCHES:          0 LATE PREFETCHES: 0 DROPPED PREFETCHES: 0
ITLB COMMIT LATE PREFETCHES: 0 NORMAL LATE: 0 MISSED OPPORTUNITY: 0 UNCOVERED: 0
ITLB PREFETCHES SAME FILL-ORIGIN LEVEL: 0 DIFFERENT FILL-ORIGIN LEVEL: 0
ITLB AVERAGE MISS LATENCY: 678 cycles
ITLB AVERAGE MISS LATENCY LOAD: -nan cycles
ITLB AVERAGE MISS LATENCY PREFETCH: -nan cycles
ITLB AVERAGE MSHR OCCUPANCY: 3.35097e-08
ITLB MSHR FULL: 0
ITLB RQ	ACCESS:   35647138	FORWARD:          0	MERGED:    5805057	TO_CACHE:   29842081

DTLB SPEC fills:          0  NON-SPEC fills:          0
DTLB Test counter :          0
DTLB Leapfrog:          0
DTLB MSHR merge:          0
DTLB TOTAL     ACCESS:   55601538  HIT:   55431596  MISS:     169942  HIT %:    99.6944  MISS %:   0.305643   MPKI: 0.84971
DTLB LOAD TRANSLATION NON_SPEC    ACCESS:   55601538  HIT:   55431596  MISS:     169942  HIT %:    99.6944  MISS %:   0.305643   MPKI: 0.84971
DTLB PREFETCH  REQUESTED:          0  ISSUED:          0  USEFUL:          0  USELESS:          0
DTLB USEFUL LOAD PREFETCHES:          0 PREFETCH ISSUED TO LOWER LEVEL:          0  ACCURACY: -nan
DTLB TIMELY PREFETCHES:          0 LATE PREFETCHES: 0 DROPPED PREFETCHES: 0
DTLB COMMIT LATE PREFETCHES: 0 NORMAL LATE: 0 MISSED OPPORTUNITY: 0 UNCOVERED: 0
DTLB PREFETCHES SAME FILL-ORIGIN LEVEL: 0 DIFFERENT FILL-ORIGIN LEVEL: 0
DTLB AVERAGE MISS LATENCY: 187.742 cycles
DTLB AVERAGE MISS LATENCY LOAD: -nan cycles
DTLB AVERAGE MISS LATENCY PREFETCH: -nan cycles
DTLB AVERAGE MSHR OCCUPANCY: 0.113325
DTLB MSHR FULL: 0.0089153
DTLB RQ	ACCESS:   65832736	FORWARD:          0	MERGED:   10104765	TO_CACHE:   55727971

STLB SPEC fills:          0  NON-SPEC fills:          0
STLB Test counter :          0
STLB Leapfrog:          0
STLB MSHR merge:          0
STLB TOTAL     ACCESS:    6744099  HIT:    6628777  MISS:     115322  HIT %:      98.29  MISS %:    1.70997   MPKI: 0.57661
STLB LOAD TRANSLATION NON_SPEC    ACCESS:     169949  HIT:      54627  MISS:     115322  HIT %:    32.1432  MISS %:    67.8568   MPKI: 0.57661
STLB TRANSLATION FROM L1D PREFETCHER NON_SPEC    ACCESS:    6574150  HIT:    6574150  MISS:          0  HIT %:        100  MISS %:          0   MPKI: 0
STLB PREFETCH  REQUESTED:          0  ISSUED:          0  USEFUL:          0  USELESS:          0
STLB USEFUL LOAD PREFETCHES:          0 PREFETCH ISSUED TO LOWER LEVEL:          0  ACCURACY: -nan
STLB TIMELY PREFETCHES:          0 LATE PREFETCHES: 0 DROPPED PREFETCHES: 0
STLB COMMIT LATE PREFETCHES: 0 NORMAL LATE: 0 MISSED OPPORTUNITY: 0 UNCOVERED: 0
STLB PREFETCHES SAME FILL-ORIGIN LEVEL: 0 DIFFERENT FILL-ORIGIN LEVEL: 0
STLB AVERAGE MISS LATENCY: 263.134 cycles
STLB AVERAGE MISS LATENCY LOAD: -nan cycles
STLB AVERAGE MISS LATENCY PREFETCH: -nan cycles
STLB AVERAGE MSHR OCCUPANCY: 0.0430643
STLB MSHR FULL: 0
STLB RQ	ACCESS:   19116761	FORWARD:          0	MERGED:   12372662	TO_CACHE:    6744099

STLB Hit, L1D data hit: 0
STLB Hit, L2C data hit: 0
STLB Hit, LLC data hit: 0
STLB Hit, LLC data miss: 0
STLB STLB hints to L2: 0
L0D SPEC fills:   27529131  NON-SPEC fills:          0
L0D TimeGuard Request with older TS:    2476362 Restricted eviction:    1971920 read:    1155783
L0D Test counter :          0
L0D Leapfrog:          0
L0D MSHR merge:    4950311
L0D TOTAL     ACCESS:   48563472  HIT:   13224433  MISS:   35339039  HIT %:    27.2312  MISS %:    72.7688   MPKI: 176.695
L0D LOAD      TOTAL       ACCESS:   48563472  HIT:   13224433  MISS:   35339039  HIT %:    27.2312  MISS %:    72.7688   MPKI: 176.695
L0D LOAD      NON_SPEC    ACCESS:    6080268  HIT:     241900  MISS:    5838368  HIT %:    3.97844  MISS %:    96.0216   MPKI: 29.1918
L0D LOAD      SPEC        ACCESS:   42483204  HIT:   12982533  MISS:   29500671  HIT %:    30.5592  MISS %:    69.4408   MPKI: 147.503
L0D PREFETCH  REQUESTED:          0  ISSUED:          0  USEFUL:          0  USELESS:          0
L0D USEFUL LOAD PREFETCHES:          0 PREFETCH ISSUED TO LOWER LEVEL:          0  ACCURACY: -nan
L0D TIMELY PREFETCHES:          0 LATE PREFETCHES: 0 DROPPED PREFETCHES: 0
L0D COMMIT LATE PREFETCHES: 0 NORMAL LATE: 0 MISSED OPPORTUNITY: 0 UNCOVERED: 35339039
L0D PREFETCHES SAME FILL-ORIGIN LEVEL: 0 DIFFERENT FILL-ORIGIN LEVEL: 0
L0D AVERAGE MISS LATENCY: 13.1767 cycles
L0D AVERAGE MISS LATENCY LOAD: 13.1767 cycles
L0D AVERAGE MISS LATENCY PREFETCH: -nan cycles
L0D AVERAGE MSHR OCCUPANCY: 2.01973
L0D MSHR FULL: 0.0204617
L0D RQ	ACCESS:   76460389	FORWARD:          0	MERGED:   22946607	TO_CACHE:   53513782
L0D WQ	ACCESS:   12318954	FORWARD:          0	MERGED:          0	TO_CACHE:   12318954

L1D SPEC fills:          0  NON-SPEC fills:     127320
L1D Test counter :          0
L1D Leapfrog:          0
L1D MSHR merge:     689059
L1D TOTAL     ACCESS:  105594440  HIT:   98412460  MISS:    7181980  HIT %:    93.1985  MISS %:    6.80148   MPKI: 35.9099
L1D LOAD      TOTAL       ACCESS:   35305587  HIT:   33660220  MISS:    1645367  HIT %:    95.3396  MISS %:    4.66036   MPKI: 8.22683
L1D LOAD      NON_SPEC    ACCESS:    5837571  HIT:    5710251  MISS:     127320  HIT %:     97.819  MISS %:    2.18104   MPKI: 0.6366
L1D LOAD      SPEC        ACCESS:   29468016  HIT:   27949969  MISS:    1518047  HIT %:    94.8485  MISS %:    5.15151   MPKI: 7.59023
L1D RFO       NON_SPEC    ACCESS:    6225384  HIT:    5092781  MISS:    1132603  HIT %:    81.8067  MISS %:    18.1933   MPKI: 5.66301
L1D PREFETCH  NON_SPEC    ACCESS:   11619938  HIT:    8643536  MISS:    2976402  HIT %:    74.3854  MISS %:    25.6146   MPKI: 14.882
L1D COMMIT LOAD NON_SPEC    ACCESS:   26985468  HIT:   26855609  MISS:     129859  HIT %:    99.5188  MISS %:   0.481218   MPKI: 0.649295
L1D COMMIT WRITE NON_SPEC    ACCESS:   25458063  HIT:   24160314  MISS:    1297749  HIT %:    94.9024  MISS %:     5.0976   MPKI: 6.48874
L1D PREFETCH  REQUESTED:   20367164  ISSUED:   20349949  USEFUL:    2891732  USELESS:      84668
L1D USEFUL LOAD PREFETCHES:    2891732 PREFETCH ISSUED TO LOWER LEVEL:    7075501  ACCURACY: 40.8696
L1D TIMELY PREFETCHES:    2891732 LATE PREFETCHES: 655611 DROPPED PREFETCHES: 0
L1D COMMIT LATE PREFETCHES: 0 NORMAL LATE: 655611 MISSED OPPORTUNITY: 0 UNCOVERED: 989756
L1D PREFETCHES SAME FILL-ORIGIN LEVEL: 3632014 DIFFERENT FILL-ORIGIN LEVEL: 3443487
L1D AVERAGE MISS LATENCY: 239.296 cycles
L1D AVERAGE MISS LATENCY LOAD: 168.221 cycles
L1D AVERAGE MISS LATENCY PREFETCH: 281.86 cycles
L1D AVERAGE MSHR OCCUPANCY: 6.49071
L1D MSHR FULL: 0.00251194
L1D RQ	ACCESS:   79874102	FORWARD:          0	MERGED:   16432714	TO_CACHE:   62349039
L1D WQ	ACCESS:   37859637	FORWARD:    1092349	MERGED:     310581	TO_CACHE:   37549056
L1D PQ	ACCESS:   20349949	FORWARD:          0	MERGED:    1403137	TO_CACHE:   18946812

L1D UNIQUE REGIONS ACCESSED: 0
L1D REGIONS CONFLICTS: 0
L1D Cross Page Prefetch Requests: 0
L1D Same Page Prefetch Requests: 24990298
L1D ROI Sum of L1D PQ occupancy: 264327358
L1D PREFETCHES PUSHED FROM L2C: 0
L1I SPEC fills:          0  NON-SPEC fills:          0
L1I Test counter :          0
L1I Leapfrog:          0
L1I MSHR merge:        349
L1I TOTAL     ACCESS:   35646787  HIT:   35646017  MISS:        770  HIT %:    99.9978  MISS %: 0.00216008   MPKI: 0.00385
L1I LOAD      TOTAL       ACCESS:   35646787  HIT:   35646017  MISS:        770  HIT %:    99.9978  MISS %: 0.00216008   MPKI: 0.00385
L1I LOAD      NON_SPEC    ACCESS:   35646787  HIT:   35646017  MISS:        770  HIT %:    99.9978  MISS %: 0.00216008   MPKI: 0.00385
L1I PREFETCH  REQUESTED:          0  ISSUED:          0  USEFUL:          0  USELESS:          0
L1I USEFUL LOAD PREFETCHES:          0 PREFETCH ISSUED TO LOWER LEVEL:          0  ACCURACY: -nan
L1I TIMELY PREFETCHES:          0 LATE PREFETCHES: 0 DROPPED PREFETCHES: 0
L1I COMMIT LATE PREFETCHES: 0 NORMAL LATE: 0 MISSED OPPORTUNITY: 0 UNCOVERED: 770
L1I PREFETCHES SAME FILL-ORIGIN LEVEL: 0 DIFFERENT FILL-ORIGIN LEVEL: 0
L1I AVERAGE MISS LATENCY: 274.373 cycles
L1I AVERAGE MISS LATENCY LOAD: 274.373 cycles
L1I AVERAGE MISS LATENCY PREFETCH: -nan cycles
L1I AVERAGE MSHR OCCUPANCY: 2.5023e-05
L1I MSHR FULL: 0
L1I RQ	ACCESS:   50634696	FORWARD:          0	MERGED:   14987558	TO_CACHE:   35647138

BTB SPEC fills:          0  NON-SPEC fills:          0
BTB Test counter :          0
BTB Leapfrog:          0
BTB MSHR merge:          0
BTB TOTAL     ACCESS:    7433880  HIT:    7433571  MISS:        309  HIT %:    99.9958  MISS %: 0.00415664   MPKI: 0.001545
BTB BRANCH_DIRECT_JUMP	ACCESS:       1193  HIT:       1166  MISS:         27
BTB BRANCH_INDIRECT	ACCESS:          0  HIT:          0  MISS:          0
BTB BRANCH_CONDITIONAL	ACCESS:    7432413  HIT:    7432256  MISS:        157
BTB BRANCH_DIRECT_CALL	ACCESS:        137  HIT:         76  MISS:         61
BTB BRANCH_INDIRECT_CALL	ACCESS:          0  HIT:          0  MISS:          0
BTB BRANCH_RETURN	ACCESS:        137  HIT:         73  MISS:         64
BTB BRANCH_OTHER ACCESS:          0  HIT:          0  MISS:          0

L2C SPEC fills:          0  NON-SPEC fills:      30818
L2C Test counter :          0
L2C Leapfrog:          0
L2C MSHR merge:      86530
L2C TOTAL     ACCESS:   13713487  HIT:    8206756  MISS:    5506731  HIT %:    59.8444  MISS %:    40.1556   MPKI: 27.5337
L2C LOAD      TOTAL       ACCESS:     990362  HIT:     690456  MISS:     299906  HIT %:    69.7175  MISS %:    30.2825   MPKI: 1.49953
L2C LOAD      NON_SPEC    ACCESS:     108670  HIT:      77082  MISS:      31588  HIT %:    70.9322  MISS %:    29.0678   MPKI: 0.15794
L2C LOAD      SPEC        ACCESS:     881692  HIT:     613374  MISS:     268318  HIT %:    69.5678  MISS %:    30.4322   MPKI: 1.34159
L2C RFO       NON_SPEC    ACCESS:    1132603  HIT:         21  MISS:    1132582  HIT %: 0.00185414  MISS %:    99.9981   MPKI: 5.66291
L2C PREFETCH  NON_SPEC    ACCESS:    5491993  HIT:    1703805  MISS:    3788188  HIT %:    31.0234  MISS %:    68.9766   MPKI: 18.9409
L2C WRITEBACK NON_SPEC    ACCESS:    1152248  HIT:    1152213  MISS:         35  HIT %:     99.997  MISS %: 0.00303754   MPKI: 0.000175
L2C CLEAN_EVICTION NON_SPEC    ACCESS:    4240057  HIT:    3992677  MISS:     247380  HIT %:    94.1656  MISS %:    5.83436   MPKI: 1.2369
L2C COMMIT LOAD NON_SPEC    ACCESS:     129686  HIT:     115273  MISS:      14413  HIT %:    88.8862  MISS %:    11.1138   MPKI: 0.072065
L2C LOAD TRANSLATION NON_SPEC    ACCESS:     576538  HIT:     552311  MISS:      24227  HIT %:    95.7978  MISS %:    4.20215   MPKI: 0.121135
L2C PREFETCH  REQUESTED:          0  ISSUED:          0  USEFUL:     568915  USELESS:    3221256
L2C USEFUL LOAD PREFETCHES:     568915 PREFETCH ISSUED TO LOWER LEVEL:    3874732  ACCURACY: 14.6827
L2C TIMELY PREFETCHES:     568915 LATE PREFETCHES: 86530 DROPPED PREFETCHES: 0
L2C COMMIT LATE PREFETCHES: 0 NORMAL LATE: 86530 MISSED OPPORTUNITY: 0 UNCOVERED: 213376
L2C PREFETCHES SAME FILL-ORIGIN LEVEL: 1608917 DIFFERENT FILL-ORIGIN LEVEL: 0
L2C AVERAGE MISS LATENCY: 477.497 cycles
L2C AVERAGE MISS LATENCY LOAD: 316.083 cycles
L2C AVERAGE MISS LATENCY PREFETCH: 512.571 cycles
L2C AVERAGE MSHR OCCUPANCY: 10.6333
L2C MSHR FULL: 0.0654149
L2C RQ	ACCESS:    2829531	FORWARD:          0	MERGED:          0	TO_CACHE:    2829194
L2C WQ	ACCESS:    5392390	FORWARD:       1389	MERGED:         84	TO_CACHE:    5392306
L2C PQ	ACCESS:    7071152	FORWARD:          0	MERGED:        263	TO_CACHE:    7069837

L2C Instructions Evicting Data 770
L2C Translations Evicting Data 24093
L2C Data Evicting Data 4942444
L2C Instructions Evicting Instructions 0
L2C Translations Evicting Instructions 7
L2C Data Evicting Instructions 716
L2C Instructions Evicting Translations 0
L2C Translations Evicting Translations 127
L2C Data Evicting Translations 22841
L2C Dense regions hint from L2: 0
PSCL5 SPEC fills:          0  NON-SPEC fills:          0
PSCL5 Test counter :          0
PSCL5 Leapfrog:          0
PSCL5 MSHR merge:          0
PSCL5 TOTAL     ACCESS:          0  HIT:          0  MISS:          0  HIT %:       -nan  MISS %:       -nan   MPKI: 0
PSCL5 PREFETCH  REQUESTED:          0  ISSUED:          0  USEFUL:          0  USELESS:          0
PSCL5 USEFUL LOAD PREFETCHES:          0 PREFETCH ISSUED TO LOWER LEVEL:          0  ACCURACY: -nan
PSCL5 TIMELY PREFETCHES:          0 LATE PREFETCHES: 0 DROPPED PREFETCHES: 0
PSCL5 COMMIT LATE PREFETCHES: 0 NORMAL LATE: 0 MISSED OPPORTUNITY: 0 UNCOVERED: 0
PSCL5 PREFETCHES SAME FILL-ORIGIN LEVEL: 0 DIFFERENT FILL-ORIGIN LEVEL: 0

PSCL4 SPEC fills:          0  NON-SPEC fills:          0
PSCL4 Test counter :          0
PSCL4 Leapfrog:          0
PSCL4 MSHR merge:          0
PSCL4 TOTAL     ACCESS:          0  HIT:          0  MISS:          0  HIT %:       -nan  MISS %:       -nan   MPKI: 0
PSCL4 PREFETCH  REQUESTED:          0  ISSUED:          0  USEFUL:          0  USELESS:          0
PSCL4 USEFUL LOAD PREFETCHES:          0 PREFETCH ISSUED TO LOWER LEVEL:          0  ACCURACY: -nan
PSCL4 TIMELY PREFETCHES:          0 LATE PREFETCHES: 0 DROPPED PREFETCHES: 0
PSCL4 COMMIT LATE PREFETCHES: 0 NORMAL LATE: 0 MISSED OPPORTUNITY: 0 UNCOVERED: 0
PSCL4 PREFETCHES SAME FILL-ORIGIN LEVEL: 0 DIFFERENT FILL-ORIGIN LEVEL: 0

PSCL3 SPEC fills:          0  NON-SPEC fills:          0
PSCL3 Test counter :          0
PSCL3 Leapfrog:          0
PSCL3 MSHR merge:          0
PSCL3 TOTAL     ACCESS:          0  HIT:          0  MISS:          0  HIT %:       -nan  MISS %:       -nan   MPKI: 0
PSCL3 PREFETCH  REQUESTED:          0  ISSUED:          0  USEFUL:          0  USELESS:          0
PSCL3 USEFUL LOAD PREFETCHES:          0 PREFETCH ISSUED TO LOWER LEVEL:          0  ACCURACY: -nan
PSCL3 TIMELY PREFETCHES:          0 LATE PREFETCHES: 0 DROPPED PREFETCHES: 0
PSCL3 COMMIT LATE PREFETCHES: 0 NORMAL LATE: 0 MISSED OPPORTUNITY: 0 UNCOVERED: 0
PSCL3 PREFETCHES SAME FILL-ORIGIN LEVEL: 0 DIFFERENT FILL-ORIGIN LEVEL: 0

PSCL2 SPEC fills:          0  NON-SPEC fills:          0
PSCL2 Test counter :          0
PSCL2 Leapfrog:          0
PSCL2 MSHR merge:          0
PSCL2 TOTAL     ACCESS:          0  HIT:          0  MISS:          0  HIT %:       -nan  MISS %:       -nan   MPKI: 0
PSCL2 PREFETCH  REQUESTED:          0  ISSUED:          0  USEFUL:          0  USELESS:          0
PSCL2 USEFUL LOAD PREFETCHES:          0 PREFETCH ISSUED TO LOWER LEVEL:          0  ACCURACY: -nan
PSCL2 TIMELY PREFETCHES:          0 LATE PREFETCHES: 0 DROPPED PREFETCHES: 0
PSCL2 COMMIT LATE PREFETCHES: 0 NORMAL LATE: 0 MISSED OPPORTUNITY: 0 UNCOVERED: 0
PSCL2 PREFETCHES SAME FILL-ORIGIN LEVEL: 0 DIFFERENT FILL-ORIGIN LEVEL: 0

LLC SPEC fills:          0  NON-SPEC fills:      24329
LLC Test counter :          0
LLC Leapfrog:          0
LLC MSHR merge:          0
LLC TOTAL     ACCESS:   10262954  HIT:    4837940  MISS:    5425014  HIT %:    47.1398  MISS %:    52.8602   MPKI: 27.1251
LLC LOAD      TOTAL       ACCESS:     213376  HIT:       1347  MISS:     212029  HIT %:    0.63128  MISS %:    99.3687   MPKI: 1.06014
LLC LOAD      NON_SPEC    ACCESS:      25110  HIT:         11  MISS:      25099  HIT %:  0.0438072  MISS %:    99.9562   MPKI: 0.125495
LLC LOAD      SPEC        ACCESS:     188266  HIT:       1336  MISS:     186930  HIT %:   0.709634  MISS %:    99.2904   MPKI: 0.93465
LLC RFO       NON_SPEC    ACCESS:    1132582  HIT:         13  MISS:    1132569  HIT %: 0.00114782  MISS %:    99.9989   MPKI: 5.66284
LLC PREFETCH  NON_SPEC    ACCESS:    3874718  HIT:         70  MISS:    3874648  HIT %: 0.00180658  MISS %:    99.9982   MPKI: 19.3732
LLC WRITEBACK NON_SPEC    ACCESS:    1152513  HIT:    1152476  MISS:         37  HIT %:    99.9968  MISS %: 0.00321038   MPKI: 0.000185
LLC CLEAN_EVICTION NON_SPEC    ACCESS:    3851125  HIT:    3679594  MISS:     171531  HIT %:     95.546  MISS %:    4.45405   MPKI: 0.857655
LLC COMMIT LOAD NON_SPEC    ACCESS:      14413  HIT:       4432  MISS:       9981  HIT %:      30.75  MISS %:      69.25   MPKI: 0.049905
LLC LOAD TRANSLATION NON_SPEC    ACCESS:      24227  HIT:          8  MISS:      24219  HIT %:   0.033021  MISS %:     99.967   MPKI: 0.121095
LLC PREFETCH  REQUESTED:          0  ISSUED:          0  USEFUL:       5364  USELESS:    3865286
LLC USEFUL LOAD PREFETCHES:       5364 PREFETCH ISSUED TO LOWER LEVEL:    3874662  ACCURACY: 0.138438
LLC TIMELY PREFETCHES:       5364 LATE PREFETCHES: 0 DROPPED PREFETCHES: 0
LLC COMMIT LATE PREFETCHES: 0 NORMAL LATE: 0 MISSED OPPORTUNITY: 0 UNCOVERED: 212029
LLC PREFETCHES SAME FILL-ORIGIN LEVEL: 0 DIFFERENT FILL-ORIGIN LEVEL: 0
LLC AVERAGE MISS LATENCY: 469.257 cycles
LLC AVERAGE MISS LATENCY LOAD: 279.886 cycles
LLC AVERAGE MISS LATENCY PREFETCH: 497.798 cycles
LLC AVERAGE MSHR OCCUPANCY: 7.24752
LLC MSHR FULL: 0
LLC RQ	ACCESS:    1384603	FORWARD:          0	MERGED:          0	TO_CACHE:    1384603
LLC WQ	ACCESS:    5003641	FORWARD:          0	MERGED:          0	TO_CACHE:    5003641
LLC PQ	ACCESS:    3874732	FORWARD:          0	MERGED:          0	TO_CACHE:    3874732

LLC Dense regions hint to LLC: 0

RAW hits: 1942714
Loads Generated: 78403119
Loads sent to L1D: 76460389
Stores Generated: 12318967
Stores sent to L1D: 12318954
Major fault: 0 Minor fault: 55185
Allocated PAGES: 55185
Total Load insts: 113697824
Total Non-spec loads: 7097795
Percentage of speculative loads: 93.7573

LeapFrogging counter: 294871
Commit hits: 25540784 miss: 44535063
Commit hit %: 36.4473 miss %: 63.5527
Commits not translated: 0
Loads retired: 1645367
Stores retired: 12318954
Cache fills: 1645367
L1D response latency: 168.221 cycles
Load retirement latency: 287.61 cycles
OOO test counter: 0
Discarded buffer inserts: 25540784 hits: 48226 hit %: 0.18882
Filter prediction accuracy: -nan
Speculative prefetch buffer size: 0
CPU 0 L1D PC-based stride prefetcher final stats
Degree: 3

DRAM Statistics
 CHANNEL 0
 RQ ROW_BUFFER_HIT:     656453  ROW_BUFFER_MISS:    4596993
 DBUS_CONGESTED:        337
 WQ ROW_BUFFER_HIT:     971979  ROW_BUFFER_MISS:    4033442  FULL:       5234

 AVG_CONGESTED_CYCLE: 5
 All warmup complete: 2
Channel 0 Bank busy for read cycles: 0
Channel 0 Bank busy for write cycles: 0
Channel 0
Rank 0
0banks busy for read cycles: 5481003
0banks busy for write cycles: 30489
1banks busy for read cycles: 14338178
1banks busy for write cycles: 2127855
2banks busy for read cycles: 22666370
2banks busy for write cycles: 4015284
3banks busy for read cycles: 23640174
3banks busy for write cycles: 789987
4banks busy for read cycles: 28730571
4banks busy for write cycles: 713361
5banks busy for read cycles: 27067174
5banks busy for write cycles: 727446
6banks busy for read cycles: 25796274
6banks busy for write cycles: 795474
7banks busy for read cycles: 16750901
7banks busy for write cycles: 6206012
8banks busy for read cycles: 19680794
8banks busy for write cycles: 104234549

CPU 0 Branch Prediction Accuracy: 99.7722% MPKI: 0.08495 Average ROB Occupancy at Mispredict: 209.896
Branch types
NOT_BRANCH: 192541358 96.2707%
BRANCH_DIRECT_JUMP: 1193 0.0005965%
BRANCH_INDIRECT: 0 0%
BRANCH_CONDITIONAL: 7457359 3.72868%
BRANCH_DIRECT_CALL: 137 6.85e-05%
BRANCH_INDIRECT_CALL: 0 0%
BRANCH_RETURN: 137 6.85e-05%
BRANCH_OTHER: 0 0%

DRAM PAGES: 1048576
Allocated PAGES: 55185
