
*** ChampSim Multicore Out-of-Order Simulator ***

Warmup Instructions: 50000000
Simulation Instructions: 200000000
Number of CPUs: 1
LLC sets: 2048
LLC ways: 16
L0D sets: 16
L0D ways: 2
ROB size: 352
LQ size: 128
SQ size: 72
Secure Berti: OFF
Berti: OFF
Berti Fill: OFF
On commit prefetching: OFF
Hit-based filter: OFF
Time-guarding: ON
Free-slotting: ON
Leap-frogging: ON
Train prefetcher on L0D bypass: OFF
No translation penalty for prefetchers: OFF
Prefetch to L0D only: OFF
Prefetch to L1D only: OFF
Clean evictions: ON
Commit loads: ON
Commit write: ON
Fill commit loads to L2C, LLC: ON
DRAM IO FREQUENCY: 6400
ROB SIZE: 352
Off-chip DRAM Size: 4096 MB Channels: 1 Width: 64-bit Data Rate: 6400 MT/s
CPU 0 runs /home/sumon/secure_berti/GhostMinion/../../traces/spec/657.xz_s-2302B.champsimtrace.xz
.xz
BTB has LRU replacement policy
ITLB has LRU replacement policy
DTLB has LRU replacement policy
STLB has LRU replacement policy
L1I has LRU replacement policy
L0D has LRU replacement policy
CPU 0 L1D IP-based stride prefetcher
L1D has LRU replacement policy
L2C has LRU replacement policy
LLC has LRU replacement policy
Heartbeat CPU 0 instructions: 10000001 cycles: 3126802 heartbeat IPC: 3.19816 cumulative IPC: 3.19816 (Simulation time: 0 hr 0 min 32 sec) 
Heartbeat CPU 0 instructions: 20000002 cycles: 6257255 heartbeat IPC: 3.19443 cumulative IPC: 3.19629 (Simulation time: 0 hr 1 min 7 sec) 
Heartbeat CPU 0 instructions: 30000000 cycles: 9504576 heartbeat IPC: 3.07946 cumulative IPC: 3.15637 (Simulation time: 0 hr 1 min 47 sec) 
Heartbeat CPU 0 instructions: 40000003 cycles: 12634550 heartbeat IPC: 3.19492 cumulative IPC: 3.16592 (Simulation time: 0 hr 2 min 40 sec) 
Heartbeat CPU 0 instructions: 50000000 cycles: 15785432 heartbeat IPC: 3.17371 cumulative IPC: 3.16748 (Simulation time: 0 hr 3 min 34 sec) 

Warmup complete CPU 0 instructions: 50000004 cycles: 15785433 (Simulation time: 0 hr 3 min 34 sec) 

Heartbeat CPU 0 instructions: 60000002 cycles: 32636873 heartbeat IPC: 0.593421 cumulative IPC: 0.593421 (Simulation time: 0 hr 4 min 43 sec) 
Heartbeat CPU 0 instructions: 70000000 cycles: 48894589 heartbeat IPC: 0.615092 cumulative IPC: 0.604062 (Simulation time: 0 hr 5 min 53 sec) 
Heartbeat CPU 0 instructions: 80000003 cycles: 65537134 heartbeat IPC: 0.60087 cumulative IPC: 0.602994 (Simulation time: 0 hr 7 min 5 sec) 
Heartbeat CPU 0 instructions: 90000002 cycles: 82406356 heartbeat IPC: 0.592795 cumulative IPC: 0.600412 (Simulation time: 0 hr 8 min 19 sec) 
Heartbeat CPU 0 instructions: 100000001 cycles: 98665735 heartbeat IPC: 0.61503 cumulative IPC: 0.60328 (Simulation time: 0 hr 9 min 30 sec) 
Heartbeat CPU 0 instructions: 110000000 cycles: 115532066 heartbeat IPC: 0.592897 cumulative IPC: 0.601524 (Simulation time: 0 hr 10 min 43 sec) 
Heartbeat CPU 0 instructions: 120000003 cycles: 132571606 heartbeat IPC: 0.58687 cumulative IPC: 0.599386 (Simulation time: 0 hr 11 min 57 sec) 
Heartbeat CPU 0 instructions: 130000000 cycles: 149760719 heartbeat IPC: 0.581763 cumulative IPC: 0.597125 (Simulation time: 0 hr 13 min 10 sec) 
Heartbeat CPU 0 instructions: 140000003 cycles: 165710367 heartbeat IPC: 0.626973 cumulative IPC: 0.6003 (Simulation time: 0 hr 14 min 23 sec) 
Heartbeat CPU 0 instructions: 150000003 cycles: 182942875 heartbeat IPC: 0.580299 cumulative IPC: 0.598238 (Simulation time: 0 hr 15 min 36 sec) 
Heartbeat CPU 0 instructions: 160000003 cycles: 200071454 heartbeat IPC: 0.58382 cumulative IPC: 0.596898 (Simulation time: 0 hr 16 min 51 sec) 
Heartbeat CPU 0 instructions: 170000000 cycles: 214986589 heartbeat IPC: 0.67046 cumulative IPC: 0.602406 (Simulation time: 0 hr 18 min 7 sec) 
Heartbeat CPU 0 instructions: 180000001 cycles: 229021806 heartbeat IPC: 0.712493 cumulative IPC: 0.609652 (Simulation time: 0 hr 19 min 21 sec) 
Heartbeat CPU 0 instructions: 190000002 cycles: 242973804 heartbeat IPC: 0.716743 cumulative IPC: 0.616229 (Simulation time: 0 hr 20 min 35 sec) 
Heartbeat CPU 0 instructions: 200000002 cycles: 256936031 heartbeat IPC: 0.716218 cumulative IPC: 0.622018 (Simulation time: 0 hr 21 min 49 sec) 
Heartbeat CPU 0 instructions: 210000000 cycles: 270871978 heartbeat IPC: 0.717569 cumulative IPC: 0.627238 (Simulation time: 0 hr 23 min 1 sec) 
Heartbeat CPU 0 instructions: 220000000 cycles: 284818146 heartbeat IPC: 0.717043 cumulative IPC: 0.631893 (Simulation time: 0 hr 24 min 14 sec) 
Heartbeat CPU 0 instructions: 230000003 cycles: 298888210 heartbeat IPC: 0.710729 cumulative IPC: 0.635812 (Simulation time: 0 hr 25 min 14 sec) 
Heartbeat CPU 0 instructions: 240000001 cycles: 313008364 heartbeat IPC: 0.708207 cumulative IPC: 0.639251 (Simulation time: 0 hr 26 min 0 sec) 
Heartbeat CPU 0 instructions: 250000003 cycles: 327057417 heartbeat IPC: 0.711792 cumulative IPC: 0.642525 (Simulation time: 0 hr 26 min 35 sec) 
Finished CPU 0 instructions: 200000003 cycles: 311271985 cumulative IPC: 0.642525 (Simulation time: 0 hr 26 min 35 sec) 
 Instruction ID: 250000106

ChampSim completed all CPUs

Region of Interest Statistics

CPU 0 cumulative IPC: 0.642525 instructions: 200000003 cycles: 311271985
ITLB SPEC fills:          0  NON-SPEC fills:          0
ITLB Test counter :          0
ITLB Leapfrog:          0
ITLB MSHR merge:          0
ITLB TOTAL     ACCESS:   28831353  HIT:   28831353  MISS:          0  HIT %:        100  MISS %:          0   MPKI: 0
ITLB LOAD TRANSLATION NON_SPEC    ACCESS:   28831353  HIT:   28831353  MISS:          0  HIT %:        100  MISS %:          0   MPKI: 0
ITLB PREFETCH  REQUESTED:          0  ISSUED:          0  USEFUL:          0  USELESS:          0
ITLB USEFUL LOAD PREFETCHES:          0 PREFETCH ISSUED TO LOWER LEVEL:          0  ACCURACY: -nan
ITLB TIMELY PREFETCHES:          0 LATE PREFETCHES: 0 DROPPED PREFETCHES: 0
ITLB COMMIT LATE PREFETCHES: 0 NORMAL LATE: 0 MISSED OPPORTUNITY: 0 UNCOVERED: 0
ITLB PREFETCHES SAME FILL-ORIGIN LEVEL: 0 DIFFERENT FILL-ORIGIN LEVEL: 0
ITLB AVERAGE MISS LATENCY: -nan cycles
ITLB AVERAGE MISS LATENCY LOAD: -nan cycles
ITLB AVERAGE MISS LATENCY PREFETCH: -nan cycles
ITLB AVERAGE MSHR OCCUPANCY: 0
ITLB MSHR FULL: 0
ITLB RQ	ACCESS:   34293044	FORWARD:          0	MERGED:    5461692	TO_CACHE:   28831352

DTLB SPEC fills:          0  NON-SPEC fills:          0
DTLB Test counter :          0
DTLB Leapfrog:          0
DTLB MSHR merge:          0
DTLB TOTAL     ACCESS:   45131624  HIT:   44211706  MISS:     919918  HIT %:    97.9617  MISS %:     2.0383   MPKI: 4.59959
DTLB LOAD TRANSLATION NON_SPEC    ACCESS:   45131624  HIT:   44211706  MISS:     919918  HIT %:    97.9617  MISS %:     2.0383   MPKI: 4.59959
DTLB PREFETCH  REQUESTED:          0  ISSUED:          0  USEFUL:          0  USELESS:          0
DTLB USEFUL LOAD PREFETCHES:          0 PREFETCH ISSUED TO LOWER LEVEL:          0  ACCURACY: -nan
DTLB TIMELY PREFETCHES:          0 LATE PREFETCHES: 0 DROPPED PREFETCHES: 0
DTLB COMMIT LATE PREFETCHES: 0 NORMAL LATE: 0 MISSED OPPORTUNITY: 0 UNCOVERED: 0
DTLB PREFETCHES SAME FILL-ORIGIN LEVEL: 0 DIFFERENT FILL-ORIGIN LEVEL: 0
DTLB AVERAGE MISS LATENCY: 20.6967 cycles
DTLB AVERAGE MISS LATENCY LOAD: -nan cycles
DTLB AVERAGE MISS LATENCY PREFETCH: -nan cycles
DTLB AVERAGE MSHR OCCUPANCY: 0.0563733
DTLB MSHR FULL: 6.64617e-08
DTLB RQ	ACCESS:   55955439	FORWARD:          0	MERGED:   10816689	TO_CACHE:   45138750

STLB SPEC fills:          0  NON-SPEC fills:          0
STLB Test counter :          0
STLB Leapfrog:          0
STLB MSHR merge:          0
STLB TOTAL     ACCESS:    1623001  HIT:    1488893  MISS:     134108  HIT %:     91.737  MISS %:    8.26296   MPKI: 0.67054
STLB LOAD TRANSLATION NON_SPEC    ACCESS:     919918  HIT:     785811  MISS:     134107  HIT %:    85.4219  MISS %:    14.5781   MPKI: 0.670535
STLB TRANSLATION FROM L1D PREFETCHER NON_SPEC    ACCESS:     703083  HIT:     703082  MISS:          1  HIT %:    99.9999  MISS %: 0.000142231   MPKI: 5e-06
STLB PREFETCH  REQUESTED:          0  ISSUED:          0  USEFUL:          1  USELESS:          0
STLB USEFUL LOAD PREFETCHES:          1 PREFETCH ISSUED TO LOWER LEVEL:          0  ACCURACY: inf
STLB TIMELY PREFETCHES:          1 LATE PREFETCHES: 0 DROPPED PREFETCHES: 0
STLB COMMIT LATE PREFETCHES: 0 NORMAL LATE: 0 MISSED OPPORTUNITY: 0 UNCOVERED: 0
STLB PREFETCHES SAME FILL-ORIGIN LEVEL: 0 DIFFERENT FILL-ORIGIN LEVEL: 0
STLB AVERAGE MISS LATENCY: 80.1975 cycles
STLB AVERAGE MISS LATENCY LOAD: -nan cycles
STLB AVERAGE MISS LATENCY PREFETCH: -nan cycles
STLB AVERAGE MSHR OCCUPANCY: 0.0475459
STLB MSHR FULL: 0
STLB RQ	ACCESS:    2906428	FORWARD:          0	MERGED:    1283427	TO_CACHE:    1623001

STLB Hit, L1D data hit: 0
STLB Hit, L2C data hit: 0
STLB Hit, LLC data hit: 0
STLB Hit, LLC data miss: 0
STLB STLB hints to L2: 0
L0D SPEC fills:   23829880  NON-SPEC fills:          0
L0D TimeGuard Request with older TS:     116833 Restricted eviction:      83077 read:     276252
L0D Test counter :          0
L0D Leapfrog:          0
L0D MSHR merge:     808806
L0D TOTAL     ACCESS:   37948818  HIT:    5414760  MISS:   32534058  HIT %:    14.2686  MISS %:    85.7314   MPKI: 162.67
L0D LOAD      TOTAL       ACCESS:   37948818  HIT:    5414760  MISS:   32534058  HIT %:    14.2686  MISS %:    85.7314   MPKI: 162.67
L0D LOAD      NON_SPEC    ACCESS:    9087581  HIT:     466479  MISS:    8621102  HIT %:    5.13315  MISS %:    94.8669   MPKI: 43.1055
L0D LOAD      SPEC        ACCESS:   28861237  HIT:    4948281  MISS:   23912956  HIT %:    17.1451  MISS %:    82.8549   MPKI: 119.565
L0D PREFETCH  REQUESTED:          0  ISSUED:          0  USEFUL:          0  USELESS:          0
L0D USEFUL LOAD PREFETCHES:          0 PREFETCH ISSUED TO LOWER LEVEL:          0  ACCURACY: -nan
L0D TIMELY PREFETCHES:          0 LATE PREFETCHES: 0 DROPPED PREFETCHES: 0
L0D COMMIT LATE PREFETCHES: 0 NORMAL LATE: 0 MISSED OPPORTUNITY: 0 UNCOVERED: 32534058
L0D PREFETCHES SAME FILL-ORIGIN LEVEL: 0 DIFFERENT FILL-ORIGIN LEVEL: 0
L0D AVERAGE MISS LATENCY: 6.7136 cycles
L0D AVERAGE MISS LATENCY LOAD: 6.7136 cycles
L0D AVERAGE MISS LATENCY PREFETCH: -nan cycles
L0D AVERAGE MSHR OCCUPANCY: 0.617762
L0D MSHR FULL: 1.72869e-06
L0D RQ	ACCESS:   45263774	FORWARD:          0	MERGED:    6506151	TO_CACHE:   38757623
L0D WQ	ACCESS:   17197816	FORWARD:          0	MERGED:          0	TO_CACHE:   17197816

L1D SPEC fills:          0  NON-SPEC fills:     123948
L1D Test counter :          0
L1D Leapfrog:          0
L1D MSHR merge:       1948
L1D TOTAL     ACCESS:   82252622  HIT:   80215776  MISS:    2036846  HIT %:    97.5237  MISS %:    2.47633   MPKI: 10.1842
L1D LOAD      TOTAL       ACCESS:   32533618  HIT:   31554368  MISS:     979250  HIT %:      96.99  MISS %:    3.00996   MPKI: 4.89625
L1D LOAD      NON_SPEC    ACCESS:    8620968  HIT:    8497020  MISS:     123948  HIT %:    98.5622  MISS %:    1.43775   MPKI: 0.61974
L1D LOAD      SPEC        ACCESS:   23912650  HIT:   23057348  MISS:     855302  HIT %:    96.4232  MISS %:    3.57678   MPKI: 4.27651
L1D RFO       NON_SPEC    ACCESS:   15829277  HIT:   15730421  MISS:      98856  HIT %:    99.3755  MISS %:   0.624514   MPKI: 0.49428
L1D PREFETCH  NON_SPEC    ACCESS:    1980384  HIT:    1871230  MISS:     109154  HIT %:    94.4882  MISS %:    5.51176   MPKI: 0.54577
L1D COMMIT LOAD NON_SPEC    ACCESS:    8181885  HIT:    8155208  MISS:      26677  HIT %:     99.674  MISS %:    0.32605   MPKI: 0.133385
L1D COMMIT WRITE NON_SPEC    ACCESS:   23727458  HIT:   22904549  MISS:     822909  HIT %:    96.5318  MISS %:    3.46817   MPKI: 4.11454
L1D PREFETCH  REQUESTED:    2082167  ISSUED:    2082167  USEFUL:      59204  USELESS:      49944
L1D USEFUL LOAD PREFETCHES:      59204 PREFETCH ISSUED TO LOWER LEVEL:     110693  ACCURACY: 53.4849
L1D TIMELY PREFETCHES:      59204 LATE PREFETCHES: 1508 DROPPED PREFETCHES: 0
L1D COMMIT LATE PREFETCHES: 0 NORMAL LATE: 1508 MISSED OPPORTUNITY: 0 UNCOVERED: 977742
L1D PREFETCHES SAME FILL-ORIGIN LEVEL: 110677 DIFFERENT FILL-ORIGIN LEVEL: 16
L1D AVERAGE MISS LATENCY: 31.062 cycles
L1D AVERAGE MISS LATENCY LOAD: 52.0719 cycles
L1D AVERAGE MISS LATENCY PREFETCH: 34.4021 cycles
L1D AVERAGE MSHR OCCUPANCY: 0.0765877
L1D MSHR FULL: 0
L1D RQ	ACCESS:   44798575	FORWARD:          0	MERGED:    3726251	TO_CACHE:   40716476
L1D WQ	ACCESS:   40932726	FORWARD:     355848	MERGED:    1315981	TO_CACHE:   39616745
L1D PQ	ACCESS:    2082167	FORWARD:          0	MERGED:      95657	TO_CACHE:    1986510

L1D UNIQUE REGIONS ACCESSED: 0
L1D REGIONS CONFLICTS: 0
L1D Cross Page Prefetch Requests: 0
L1D Same Page Prefetch Requests: 2505204
L1D ROI Sum of L1D PQ occupancy: 26824756
L1D PREFETCHES PUSHED FROM L2C: 0
L1I SPEC fills:          0  NON-SPEC fills:          0
L1I Test counter :          0
L1I Leapfrog:          0
L1I MSHR merge:        194
L1I TOTAL     ACCESS:   34292850  HIT:   34292458  MISS:        392  HIT %:    99.9989  MISS %:  0.0011431   MPKI: 0.00196
L1I LOAD      TOTAL       ACCESS:   34292850  HIT:   34292458  MISS:        392  HIT %:    99.9989  MISS %:  0.0011431   MPKI: 0.00196
L1I LOAD      NON_SPEC    ACCESS:   34292850  HIT:   34292458  MISS:        392  HIT %:    99.9989  MISS %:  0.0011431   MPKI: 0.00196
L1I PREFETCH  REQUESTED:          0  ISSUED:          0  USEFUL:          0  USELESS:          0
L1I USEFUL LOAD PREFETCHES:          0 PREFETCH ISSUED TO LOWER LEVEL:          0  ACCURACY: -nan
L1I TIMELY PREFETCHES:          0 LATE PREFETCHES: 0 DROPPED PREFETCHES: 0
L1I COMMIT LATE PREFETCHES: 0 NORMAL LATE: 0 MISSED OPPORTUNITY: 0 UNCOVERED: 392
L1I PREFETCHES SAME FILL-ORIGIN LEVEL: 0 DIFFERENT FILL-ORIGIN LEVEL: 0
L1I AVERAGE MISS LATENCY: 83.2143 cycles
L1I AVERAGE MISS LATENCY LOAD: 83.2143 cycles
L1I AVERAGE MISS LATENCY PREFETCH: -nan cycles
L1I AVERAGE MSHR OCCUPANCY: 2.02082e-05
L1I MSHR FULL: 0
L1I RQ	ACCESS:   52175572	FORWARD:          0	MERGED:   17882528	TO_CACHE:   34293044

BTB SPEC fills:          0  NON-SPEC fills:          0
BTB Test counter :          0
BTB Leapfrog:          0
BTB MSHR merge:          0
BTB TOTAL     ACCESS:   23485692  HIT:   23238860  MISS:     246832  HIT %:     98.949  MISS %:    1.05099   MPKI: 1.23416
BTB BRANCH_DIRECT_JUMP	ACCESS:    2818425  HIT:    2818347  MISS:         78
BTB BRANCH_INDIRECT	ACCESS:     447403  HIT:     208958  MISS:     238445
BTB BRANCH_CONDITIONAL	ACCESS:   19634890  HIT:   19634641  MISS:        249
BTB BRANCH_DIRECT_CALL	ACCESS:     190457  HIT:     190438  MISS:         19
BTB BRANCH_INDIRECT_CALL	ACCESS:     102031  HIT:     102024  MISS:          7
BTB BRANCH_RETURN	ACCESS:     292486  HIT:     284452  MISS:       8034
BTB BRANCH_OTHER ACCESS:          0  HIT:          0  MISS:          0

L2C SPEC fills:          0  NON-SPEC fills:      38683
L2C Test counter :          0
L2C Leapfrog:          0
L2C MSHR merge:          0
L2C TOTAL     ACCESS:    2953674  HIT:    2004661  MISS:     949013  HIT %:    67.8701  MISS %:    32.1299   MPKI: 4.74506
L2C LOAD      TOTAL       ACCESS:     978113  HIT:     531448  MISS:     446665  HIT %:     54.334  MISS %:     45.666   MPKI: 2.23332
L2C LOAD      NON_SPEC    ACCESS:     123794  HIT:      84723  MISS:      39071  HIT %:    68.4387  MISS %:    31.5613   MPKI: 0.195355
L2C LOAD      SPEC        ACCESS:     854319  HIT:     446725  MISS:     407594  HIT %:    52.2902  MISS %:    47.7098   MPKI: 2.03797
L2C RFO       NON_SPEC    ACCESS:      98789  HIT:      56405  MISS:      42384  HIT %:    57.0964  MISS %:    42.9036   MPKI: 0.21192
L2C PREFETCH  NON_SPEC    ACCESS:     110691  HIT:      88479  MISS:      22212  HIT %:    79.9333  MISS %:    20.0667   MPKI: 0.11106
L2C WRITEBACK NON_SPEC    ACCESS:     159927  HIT:     159174  MISS:        753  HIT %:    99.5292  MISS %:    0.47084   MPKI: 0.003765
L2C CLEAN_EVICTION NON_SPEC    ACCESS:     908957  HIT:     499670  MISS:     409287  HIT %:    54.9718  MISS %:    45.0282   MPKI: 2.04643
L2C COMMIT LOAD NON_SPEC    ACCESS:      26657  HIT:      21806  MISS:       4851  HIT %:    81.8022  MISS %:    18.1978   MPKI: 0.024255
L2C LOAD TRANSLATION NON_SPEC    ACCESS:     670535  HIT:     647675  MISS:      22860  HIT %:    96.5908  MISS %:    3.40922   MPKI: 0.1143
L2C TRANSLATION FROM L1D PREFETCHER NON_SPEC    ACCESS:          5  HIT:          4  MISS:          1  HIT %:         80  MISS %:         20   MPKI: 5e-06
L2C PREFETCH  REQUESTED:          0  ISSUED:          0  USEFUL:       5798  USELESS:      16069
L2C USEFUL LOAD PREFETCHES:       5798 PREFETCH ISSUED TO LOWER LEVEL:      22212  ACCURACY: 26.103
L2C TIMELY PREFETCHES:       5798 LATE PREFETCHES: 0 DROPPED PREFETCHES: 0
L2C COMMIT LATE PREFETCHES: 0 NORMAL LATE: 0 MISSED OPPORTUNITY: 0 UNCOVERED: 446665
L2C PREFETCHES SAME FILL-ORIGIN LEVEL: 11 DIFFERENT FILL-ORIGIN LEVEL: 0
L2C AVERAGE MISS LATENCY: 52.4768 cycles
L2C AVERAGE MISS LATENCY LOAD: 88.9008 cycles
L2C AVERAGE MISS LATENCY PREFETCH: 98.1181 cycles
L2C AVERAGE MSHR OCCUPANCY: 0.245412
L2C MSHR FULL: 0
L2C RQ	ACCESS:    1774192	FORWARD:          0	MERGED:          0	TO_CACHE:    1774099
L2C WQ	ACCESS:    1068885	FORWARD:         93	MERGED:          1	TO_CACHE:    1068884
L2C PQ	ACCESS:     110693	FORWARD:          0	MERGED:          0	TO_CACHE:     110693

L2C Instructions Evicting Data 376
L2C Translations Evicting Data 21842
L2C Data Evicting Data 103305
L2C Instructions Evicting Instructions 0
L2C Translations Evicting Instructions 22
L2C Data Evicting Instructions 84
L2C Instructions Evicting Translations 12
L2C Translations Evicting Translations 997
L2C Data Evicting Translations 4741
L2C Dense regions hint from L2: 0
PSCL5 SPEC fills:          0  NON-SPEC fills:          0
PSCL5 Test counter :          0
PSCL5 Leapfrog:          0
PSCL5 MSHR merge:          0
PSCL5 TOTAL     ACCESS:          0  HIT:          0  MISS:          0  HIT %:       -nan  MISS %:       -nan   MPKI: 0
PSCL5 PREFETCH  REQUESTED:          0  ISSUED:          0  USEFUL:          0  USELESS:          0
PSCL5 USEFUL LOAD PREFETCHES:          0 PREFETCH ISSUED TO LOWER LEVEL:          0  ACCURACY: -nan
PSCL5 TIMELY PREFETCHES:          0 LATE PREFETCHES: 0 DROPPED PREFETCHES: 0
PSCL5 COMMIT LATE PREFETCHES: 0 NORMAL LATE: 0 MISSED OPPORTUNITY: 0 UNCOVERED: 0
PSCL5 PREFETCHES SAME FILL-ORIGIN LEVEL: 0 DIFFERENT FILL-ORIGIN LEVEL: 0

PSCL4 SPEC fills:          0  NON-SPEC fills:          0
PSCL4 Test counter :          0
PSCL4 Leapfrog:          0
PSCL4 MSHR merge:          0
PSCL4 TOTAL     ACCESS:          0  HIT:          0  MISS:          0  HIT %:       -nan  MISS %:       -nan   MPKI: 0
PSCL4 PREFETCH  REQUESTED:          0  ISSUED:          0  USEFUL:          0  USELESS:          0
PSCL4 USEFUL LOAD PREFETCHES:          0 PREFETCH ISSUED TO LOWER LEVEL:          0  ACCURACY: -nan
PSCL4 TIMELY PREFETCHES:          0 LATE PREFETCHES: 0 DROPPED PREFETCHES: 0
PSCL4 COMMIT LATE PREFETCHES: 0 NORMAL LATE: 0 MISSED OPPORTUNITY: 0 UNCOVERED: 0
PSCL4 PREFETCHES SAME FILL-ORIGIN LEVEL: 0 DIFFERENT FILL-ORIGIN LEVEL: 0

PSCL3 SPEC fills:          0  NON-SPEC fills:          0
PSCL3 Test counter :          0
PSCL3 Leapfrog:          0
PSCL3 MSHR merge:          0
PSCL3 TOTAL     ACCESS:          0  HIT:          0  MISS:          0  HIT %:       -nan  MISS %:       -nan   MPKI: 0
PSCL3 PREFETCH  REQUESTED:          0  ISSUED:          0  USEFUL:          0  USELESS:          0
PSCL3 USEFUL LOAD PREFETCHES:          0 PREFETCH ISSUED TO LOWER LEVEL:          0  ACCURACY: -nan
PSCL3 TIMELY PREFETCHES:          0 LATE PREFETCHES: 0 DROPPED PREFETCHES: 0
PSCL3 COMMIT LATE PREFETCHES: 0 NORMAL LATE: 0 MISSED OPPORTUNITY: 0 UNCOVERED: 0
PSCL3 PREFETCHES SAME FILL-ORIGIN LEVEL: 0 DIFFERENT FILL-ORIGIN LEVEL: 0

PSCL2 SPEC fills:          0  NON-SPEC fills:          0
PSCL2 Test counter :          0
PSCL2 Leapfrog:          0
PSCL2 MSHR merge:          0
PSCL2 TOTAL     ACCESS:          0  HIT:          0  MISS:          0  HIT %:       -nan  MISS %:       -nan   MPKI: 0
PSCL2 PREFETCH  REQUESTED:          0  ISSUED:          0  USEFUL:          0  USELESS:          0
PSCL2 USEFUL LOAD PREFETCHES:          0 PREFETCH ISSUED TO LOWER LEVEL:          0  ACCURACY: -nan
PSCL2 TIMELY PREFETCHES:          0 LATE PREFETCHES: 0 DROPPED PREFETCHES: 0
PSCL2 COMMIT LATE PREFETCHES: 0 NORMAL LATE: 0 MISSED OPPORTUNITY: 0 UNCOVERED: 0
PSCL2 PREFETCHES SAME FILL-ORIGIN LEVEL: 0 DIFFERENT FILL-ORIGIN LEVEL: 0

LLC SPEC fills:          0  NON-SPEC fills:      14014
LLC Test counter :          0
LLC Leapfrog:          0
LLC MSHR merge:          0
LLC TOTAL     ACCESS:    1031721  HIT:     599378  MISS:     432343  HIT %:     58.095  MISS %:     41.905   MPKI: 2.16171
LLC LOAD      TOTAL       ACCESS:     446664  HIT:     253816  MISS:     192848  HIT %:    56.8248  MISS %:    43.1752   MPKI: 0.96424
LLC LOAD      NON_SPEC    ACCESS:      39071  HIT:      24966  MISS:      14105  HIT %:    63.8991  MISS %:    36.1009   MPKI: 0.070525
LLC LOAD      SPEC        ACCESS:     407593  HIT:     228850  MISS:     178743  HIT %:    56.1467  MISS %:    43.8533   MPKI: 0.893715
LLC RFO       NON_SPEC    ACCESS:      42384  HIT:      12740  MISS:      29644  HIT %:    30.0585  MISS %:    69.9415   MPKI: 0.14822
LLC PREFETCH  NON_SPEC    ACCESS:      22212  HIT:      13720  MISS:       8492  HIT %:    61.7684  MISS %:    38.2316   MPKI: 0.04246
LLC WRITEBACK NON_SPEC    ACCESS:      52133  HIT:      51367  MISS:        766  HIT %:    98.5307  MISS %:    1.46932   MPKI: 0.00383
LLC CLEAN_EVICTION NON_SPEC    ACCESS:     440616  HIT:     243461  MISS:     197155  HIT %:    55.2547  MISS %:    44.7453   MPKI: 0.985775
LLC COMMIT LOAD NON_SPEC    ACCESS:       4851  HIT:       4784  MISS:         67  HIT %:    98.6188  MISS %:    1.38116   MPKI: 0.000335
LLC LOAD TRANSLATION NON_SPEC    ACCESS:      22860  HIT:      19489  MISS:       3371  HIT %:    85.2537  MISS %:    14.7463   MPKI: 0.016855
LLC TRANSLATION FROM L1D PREFETCHER NON_SPEC    ACCESS:          1  HIT:          1  MISS:          0  HIT %:        100  MISS %:          0   MPKI: 0
LLC PREFETCH  REQUESTED:          0  ISSUED:          0  USEFUL:        872  USELESS:       6279
LLC USEFUL LOAD PREFETCHES:        872 PREFETCH ISSUED TO LOWER LEVEL:       8492  ACCURACY: 10.2685
LLC TIMELY PREFETCHES:        872 LATE PREFETCHES: 0 DROPPED PREFETCHES: 0
LLC COMMIT LATE PREFETCHES: 0 NORMAL LATE: 0 MISSED OPPORTUNITY: 0 UNCOVERED: 192848
LLC PREFETCHES SAME FILL-ORIGIN LEVEL: 0 DIFFERENT FILL-ORIGIN LEVEL: 0
LLC AVERAGE MISS LATENCY: 86.2525 cycles
LLC AVERAGE MISS LATENCY LOAD: 155.411 cycles
LLC AVERAGE MISS LATENCY PREFETCH: 178.066 cycles
LLC AVERAGE MSHR OCCUPANCY: 0.212304
LLC MSHR FULL: 0
LLC RQ	ACCESS:     516761	FORWARD:          0	MERGED:          0	TO_CACHE:     516760
LLC WQ	ACCESS:     492749	FORWARD:          1	MERGED:          0	TO_CACHE:     492749
LLC PQ	ACCESS:      22212	FORWARD:          0	MERGED:          0	TO_CACHE:      22212

LLC Dense regions hint to LLC: 0

RAW hits: 2062386
Loads Generated: 47326161
Loads sent to L1D: 45263774
Stores Generated: 17197827
Stores sent to L1D: 17197816
Major fault: 0 Minor fault: 8202
Allocated PAGES: 8202
Total Load insts: 55954316
Total Non-spec loads: 9941722
Percentage of speculative loads: 82.2324

LeapFrogging counter: 8
Commit hits: 23734910 miss: 12264518
Commit hit %: 65.9314 miss %: 34.0686
Commits not translated: 0
Loads retired: 979248
Stores retired: 17197816
Cache fills: 979250
L1D response latency: 52.0719 cycles
Load retirement latency: 94.2657 cycles
OOO test counter: 0
Discarded buffer inserts: 23734910 hits: 5254 hit %: 0.0221362
Filter prediction accuracy: -nan
Speculative prefetch buffer size: 0
CPU 0 L1D PC-based stride prefetcher final stats
Degree: 3

DRAM Statistics
 CHANNEL 0
 RQ ROW_BUFFER_HIT:       2576  ROW_BUFFER_MISS:     231844
 DBUS_CONGESTED:         14
 WQ ROW_BUFFER_HIT:      22158  ROW_BUFFER_MISS:     219768  FULL:          0

 AVG_CONGESTED_CYCLE: 5
 All warmup complete: 2
Channel 0 Bank busy for read cycles: 0
Channel 0 Bank busy for write cycles: 0
Channel 0
Rank 0
0banks busy for read cycles: 248866380
0banks busy for write cycles: 169604
1banks busy for read cycles: 26528032
1banks busy for write cycles: 26317803
2banks busy for read cycles: 3276497
2banks busy for write cycles: 4316899
3banks busy for read cycles: 420196
3banks busy for write cycles: 784420
4banks busy for read cycles: 112300
4banks busy for write cycles: 183078
5banks busy for read cycles: 22666
5banks busy for write cycles: 44883
6banks busy for read cycles: 2852
6banks busy for write cycles: 16157
7banks busy for read cycles: 1038
7banks busy for write cycles: 23881
8banks busy for read cycles: 66
8banks busy for write cycles: 185234

CPU 0 Branch Prediction Accuracy: 92.4682% MPKI: 9.41666 Average ROB Occupancy at Mispredict: 24.4842
Branch types
NOT_BRANCH: 174994601 87.4973%
BRANCH_DIRECT_JUMP: 2818425 1.40921%
BRANCH_INDIRECT: 447403 0.223701%
BRANCH_CONDITIONAL: 21154324 10.5772%
BRANCH_DIRECT_CALL: 190457 0.0952285%
BRANCH_INDIRECT_CALL: 102031 0.0510155%
BRANCH_RETURN: 292486 0.146243%
BRANCH_OTHER: 0 0%

DRAM PAGES: 1048576
Allocated PAGES: 8202
