Initialize SIGNATURE TABLE
ST_SET: 1
ST_WAY: 256
ST_TAG_BIT: 16
ST_TAG_MASK: ffff

Initialize PATTERN TABLE
PT_SET: 512
PT_WAY: 4
SIG_DELTA_BIT: 7
C_SIG_BIT: 4
C_DELTA_BIT: 4

Initialize PREFETCH FILTER
FILTER_SET: 1024

Initialize PERCEPTRON
PERC_ENTRIES: 4096
PERC_FEATURES: 9

*** ChampSim Multicore Out-of-Order Simulator ***

Warmup Instructions: 50000000
Simulation Instructions: 200000000
Number of CPUs: 1
LLC sets: 2048
LLC ways: 16
L0D sets: 16
L0D ways: 2
ROB size: 352
LQ size: 128
SQ size: 72
Secure Berti: OFF
Berti: OFF
Berti Fill: OFF
On commit prefetching: OFF
Hit-based filter: ON
Time-guarding: ON
Free-slotting: ON
Leap-frogging: ON
Train prefetcher on L0D bypass: OFF
No translation penalty for prefetchers: OFF
Prefetch to L0D only: OFF
Prefetch to L1D only: OFF
Clean evictions: ON
Commit loads: ON
Commit write: ON
Fill commit loads to L2C, LLC: ON
DRAM IO FREQUENCY: 6400
ROB SIZE: 352
Off-chip DRAM Size: 4096 MB Channels: 1 Width: 64-bit Data Rate: 6400 MT/s
CPU 0 runs /home/sumon/secure_berti/GhostMinion/../../traces/gap/bc-5.trace.gz
.gz
BTB has LRU replacement policy
ITLB has LRU replacement policy
DTLB has LRU replacement policy
STLB has LRU replacement policy
L1I has LRU replacement policy
L0D has LRU replacement policy
L1D has LRU replacement policy
PERC_ENTRIES: 4096
L2C has LRU replacement policy
LLC has LRU replacement policy
Heartbeat CPU 0 instructions: 10000002 cycles: 3907181 heartbeat IPC: 2.55939 cumulative IPC: 2.55939 (Simulation time: 0 hr 0 min 34 sec) 
Heartbeat CPU 0 instructions: 20000001 cycles: 7404231 heartbeat IPC: 2.85955 cumulative IPC: 2.70116 (Simulation time: 0 hr 1 min 14 sec) 
Heartbeat CPU 0 instructions: 30000001 cycles: 10921814 heartbeat IPC: 2.84286 cumulative IPC: 2.7468 (Simulation time: 0 hr 1 min 55 sec) 
Heartbeat CPU 0 instructions: 40000003 cycles: 14389396 heartbeat IPC: 2.88385 cumulative IPC: 2.77982 (Simulation time: 0 hr 2 min 35 sec) 
Heartbeat CPU 0 instructions: 50000000 cycles: 17957699 heartbeat IPC: 2.80245 cumulative IPC: 2.78432 (Simulation time: 0 hr 3 min 15 sec) 

Warmup complete CPU 0 instructions: 50000004 cycles: 17957700 (Simulation time: 0 hr 3 min 15 sec) 

Heartbeat CPU 0 instructions: 60000000 cycles: 68754449 heartbeat IPC: 0.196863 cumulative IPC: 0.196863 (Simulation time: 0 hr 4 min 25 sec) 
Heartbeat CPU 0 instructions: 70000000 cycles: 118069917 heartbeat IPC: 0.202776 cumulative IPC: 0.199776 (Simulation time: 0 hr 5 min 35 sec) 
Heartbeat CPU 0 instructions: 80000003 cycles: 168563798 heartbeat IPC: 0.198044 cumulative IPC: 0.199195 (Simulation time: 0 hr 6 min 44 sec) 
Heartbeat CPU 0 instructions: 90000000 cycles: 218602175 heartbeat IPC: 0.199847 cumulative IPC: 0.199358 (Simulation time: 0 hr 7 min 53 sec) 
Heartbeat CPU 0 instructions: 100000000 cycles: 269528870 heartbeat IPC: 0.196361 cumulative IPC: 0.198751 (Simulation time: 0 hr 9 min 3 sec) 
Heartbeat CPU 0 instructions: 110000000 cycles: 318837711 heartbeat IPC: 0.202803 cumulative IPC: 0.199415 (Simulation time: 0 hr 10 min 11 sec) 
Heartbeat CPU 0 instructions: 120000000 cycles: 367774483 heartbeat IPC: 0.204345 cumulative IPC: 0.200105 (Simulation time: 0 hr 11 min 18 sec) 
Heartbeat CPU 0 instructions: 130000001 cycles: 417037557 heartbeat IPC: 0.202992 cumulative IPC: 0.200461 (Simulation time: 0 hr 12 min 35 sec) 
Heartbeat CPU 0 instructions: 140000002 cycles: 455778822 heartbeat IPC: 0.258123 cumulative IPC: 0.205563 (Simulation time: 0 hr 13 min 49 sec) 
Heartbeat CPU 0 instructions: 150000002 cycles: 485892413 heartbeat IPC: 0.332076 cumulative IPC: 0.213705 (Simulation time: 0 hr 15 min 0 sec) 
Heartbeat CPU 0 instructions: 160000001 cycles: 516173825 heartbeat IPC: 0.330236 cumulative IPC: 0.220788 (Simulation time: 0 hr 16 min 16 sec) 
Heartbeat CPU 0 instructions: 170000001 cycles: 545981170 heartbeat IPC: 0.335488 cumulative IPC: 0.227263 (Simulation time: 0 hr 18 min 7 sec) 
Heartbeat CPU 0 instructions: 180000003 cycles: 575688065 heartbeat IPC: 0.336622 cumulative IPC: 0.233088 (Simulation time: 0 hr 19 min 56 sec) 
Heartbeat CPU 0 instructions: 190000002 cycles: 605688972 heartbeat IPC: 0.333323 cumulative IPC: 0.238204 (Simulation time: 0 hr 21 min 25 sec) 
Heartbeat CPU 0 instructions: 200000002 cycles: 635302491 heartbeat IPC: 0.337684 cumulative IPC: 0.242976 (Simulation time: 0 hr 22 min 30 sec) 
Heartbeat CPU 0 instructions: 210000003 cycles: 664974769 heartbeat IPC: 0.337015 cumulative IPC: 0.247289 (Simulation time: 0 hr 23 min 33 sec) 
Heartbeat CPU 0 instructions: 220000000 cycles: 695398643 heartbeat IPC: 0.328689 cumulative IPC: 0.250944 (Simulation time: 0 hr 24 min 34 sec) 
Heartbeat CPU 0 instructions: 230000002 cycles: 726353187 heartbeat IPC: 0.323054 cumulative IPC: 0.254095 (Simulation time: 0 hr 25 min 34 sec) 
Heartbeat CPU 0 instructions: 240000002 cycles: 756800149 heartbeat IPC: 0.32844 cumulative IPC: 0.257159 (Simulation time: 0 hr 26 min 29 sec) 
Heartbeat CPU 0 instructions: 250000002 cycles: 787397314 heartbeat IPC: 0.326828 cumulative IPC: 0.259929 (Simulation time: 0 hr 27 min 25 sec) 
Finished CPU 0 instructions: 200000002 cycles: 769439615 cumulative IPC: 0.259929 (Simulation time: 0 hr 27 min 25 sec) 
 Instruction ID: 250000258

ChampSim completed all CPUs

Region of Interest Statistics

CPU 0 cumulative IPC: 0.259929 instructions: 200000002 cycles: 769439615
ITLB SPEC fills:          0  NON-SPEC fills:          0
ITLB Test counter :          0
ITLB Leapfrog:          0
ITLB MSHR merge:          0
ITLB TOTAL     ACCESS:   33871978  HIT:   33871978  MISS:          0  HIT %:        100  MISS %:          0   MPKI: 0
ITLB LOAD TRANSLATION NON_SPEC    ACCESS:   33871978  HIT:   33871978  MISS:          0  HIT %:        100  MISS %:          0   MPKI: 0
ITLB PREFETCH  REQUESTED:          0  ISSUED:          0  USEFUL:          0  USELESS:          0
ITLB USEFUL LOAD PREFETCHES:          0 PREFETCH ISSUED TO LOWER LEVEL:          0  ACCURACY: -nan
ITLB TIMELY PREFETCHES:          0 LATE PREFETCHES: 0 DROPPED PREFETCHES: 0
ITLB COMMIT LATE PREFETCHES: 0 MISSED OPPORTUNITY: 0 LATE IN PQ: 0 UNCOVERED: 0
ITLB COMMIT LATE MSHR PREFETCHES: 0
ITLB MPKI TOTAL: 0 MSHR LATE: 0 PQ LATE: 0 COMMIT LATE: 0 MISSED OPPORTUNITY: 0 UNCOVERED: 0
ITLB PREFETCHES SAME FILL-ORIGIN LEVEL: 0 DIFFERENT FILL-ORIGIN LEVEL: 0
ITLB AVERAGE MISS LATENCY: -nan cycles
ITLB AVERAGE MISS LATENCY LOAD: -nan cycles
ITLB AVERAGE MISS LATENCY PREFETCH: -nan cycles
ITLB AVERAGE MSHR OCCUPANCY: 0
ITLB MSHR FULL: 0
ITLB RQ	ACCESS:   34180949	FORWARD:          0	MERGED:     308971	TO_CACHE:   33871978

DTLB SPEC fills:          0  NON-SPEC fills:          0
DTLB Test counter :          0
DTLB Leapfrog:          0
DTLB MSHR merge:          0
DTLB TOTAL     ACCESS:   41940295  HIT:   33752354  MISS:    8187941  HIT %:    80.4771  MISS %:    19.5229   MPKI: 40.9397
DTLB LOAD TRANSLATION NON_SPEC    ACCESS:   41940295  HIT:   33752354  MISS:    8187941  HIT %:    80.4771  MISS %:    19.5229   MPKI: 40.9397
DTLB PREFETCH  REQUESTED:          0  ISSUED:          0  USEFUL:          0  USELESS:          0
DTLB USEFUL LOAD PREFETCHES:          0 PREFETCH ISSUED TO LOWER LEVEL:          0  ACCURACY: -nan
DTLB TIMELY PREFETCHES:          0 LATE PREFETCHES: 0 DROPPED PREFETCHES: 0
DTLB COMMIT LATE PREFETCHES: 0 MISSED OPPORTUNITY: 0 LATE IN PQ: 0 UNCOVERED: 0
DTLB COMMIT LATE MSHR PREFETCHES: 0
DTLB MPKI TOTAL: 0 MSHR LATE: 0 PQ LATE: 0 COMMIT LATE: 0 MISSED OPPORTUNITY: 0 UNCOVERED: 0
DTLB PREFETCHES SAME FILL-ORIGIN LEVEL: 0 DIFFERENT FILL-ORIGIN LEVEL: 0
DTLB AVERAGE MISS LATENCY: 29.6665 cycles
DTLB AVERAGE MISS LATENCY LOAD: -nan cycles
DTLB AVERAGE MISS LATENCY PREFETCH: -nan cycles
DTLB AVERAGE MSHR OCCUPANCY: 0.742512
DTLB MSHR FULL: 0.0212207
DTLB RQ	ACCESS:   47747046	FORWARD:          0	MERGED:    4487529	TO_CACHE:   43259517

STLB SPEC fills:          0  NON-SPEC fills:          0
STLB Test counter :          0
STLB Leapfrog:          0
STLB MSHR merge:          0
STLB TOTAL     ACCESS:    8187941  HIT:    6790753  MISS:    1397188  HIT %:     82.936  MISS %:     17.064   MPKI: 6.98594
STLB LOAD TRANSLATION NON_SPEC    ACCESS:    8187941  HIT:    6790753  MISS:    1397188  HIT %:     82.936  MISS %:     17.064   MPKI: 6.98594
STLB PREFETCH  REQUESTED:          0  ISSUED:          0  USEFUL:          0  USELESS:          0
STLB USEFUL LOAD PREFETCHES:          0 PREFETCH ISSUED TO LOWER LEVEL:          0  ACCURACY: -nan
STLB TIMELY PREFETCHES:          0 LATE PREFETCHES: 0 DROPPED PREFETCHES: 0
STLB COMMIT LATE PREFETCHES: 0 MISSED OPPORTUNITY: 0 LATE IN PQ: 0 UNCOVERED: 0
STLB COMMIT LATE MSHR PREFETCHES: 0
STLB MPKI TOTAL: 0 MSHR LATE: 0 PQ LATE: 0 COMMIT LATE: 0 MISSED OPPORTUNITY: 0 UNCOVERED: 0
STLB PREFETCHES SAME FILL-ORIGIN LEVEL: 0 DIFFERENT FILL-ORIGIN LEVEL: 0
STLB AVERAGE MISS LATENCY: 119.241 cycles
STLB AVERAGE MISS LATENCY LOAD: -nan cycles
STLB AVERAGE MISS LATENCY PREFETCH: -nan cycles
STLB AVERAGE MSHR OCCUPANCY: 0.253066
STLB MSHR FULL: 0
STLB RQ	ACCESS:    8187940	FORWARD:          0	MERGED:          0	TO_CACHE:    8187940

STLB Hit, L1D data hit: 0
STLB Hit, L2C data hit: 0
STLB Hit, LLC data hit: 0
STLB Hit, LLC data miss: 0
STLB STLB hints to L2: 0
L0D SPEC fills:   25140702  NON-SPEC fills:          0
L0D TimeGuard Request with older TS:     484326 Restricted eviction:     346744 read:       2515
L0D Test counter :          0
L0D Leapfrog:          0
L0D MSHR merge:    1956381
L0D TOTAL     ACCESS:   38285488  HIT:   10701375  MISS:   27584113  HIT %:    27.9515  MISS %:    72.0485   MPKI: 137.921
L0D LOAD      TOTAL       ACCESS:   38285488  HIT:   10701375  MISS:   27584113  HIT %:    27.9515  MISS %:    72.0485   MPKI: 137.921
L0D LOAD      NON_SPEC    ACCESS:    2098846  HIT:       2124  MISS:    2096722  HIT %:   0.101198  MISS %:    99.8988   MPKI: 10.4836
L0D LOAD      SPEC        ACCESS:   36186642  HIT:   10699251  MISS:   25487391  HIT %:    29.5669  MISS %:    70.4331   MPKI: 127.437
L0D PREFETCH  REQUESTED:          0  ISSUED:          0  USEFUL:          0  USELESS:          0
L0D USEFUL LOAD PREFETCHES:          0 PREFETCH ISSUED TO LOWER LEVEL:          0  ACCURACY: -nan
L0D TIMELY PREFETCHES:          0 LATE PREFETCHES: 0 DROPPED PREFETCHES: 0
L0D COMMIT LATE PREFETCHES: 0 MISSED OPPORTUNITY: 0 LATE IN PQ: 0 UNCOVERED: 0
L0D COMMIT LATE MSHR PREFETCHES: 0
L0D MPKI TOTAL: 147.702 MSHR LATE: 0 PQ LATE: 0 COMMIT LATE: 0 MISSED OPPORTUNITY: 0 UNCOVERED: 0
L0D PREFETCHES SAME FILL-ORIGIN LEVEL: 0 DIFFERENT FILL-ORIGIN LEVEL: 0
L0D AVERAGE MISS LATENCY: 77.728 cycles
L0D AVERAGE MISS LATENCY LOAD: 77.728 cycles
L0D AVERAGE MISS LATENCY PREFETCH: -nan cycles
L0D AVERAGE MSHR OCCUPANCY: 5.30547
L0D MSHR FULL: 0.489333
L0D RQ	ACCESS:   47026118	FORWARD:          0	MERGED:    6784254	TO_CACHE:   40241864
L0D WQ	ACCESS:    7505182	FORWARD:          0	MERGED:          0	TO_CACHE:    7505182

L1D SPEC fills:          0  NON-SPEC fills:    1012484
L1D Test counter :          0
L1D Leapfrog:          0
L1D MSHR merge:      22939
L1D TOTAL     ACCESS:   50330553  HIT:   16070752  MISS:   34259801  HIT %:    31.9304  MISS %:    68.0696   MPKI: 171.299
L1D LOAD      TOTAL       ACCESS:   27561173  HIT:    9882310  MISS:   17678863  HIT %:    35.8559  MISS %:    64.1441   MPKI: 88.3943
L1D LOAD      NON_SPEC    ACCESS:    2093125  HIT:    1080641  MISS:    1012484  HIT %:    51.6281  MISS %:    48.3719   MPKI: 5.06242
L1D LOAD      SPEC        ACCESS:   25468048  HIT:    8801669  MISS:   16666379  HIT %:    34.5597  MISS %:    65.4403   MPKI: 83.3319
L1D RFO       NON_SPEC    ACCESS:    3869502  HIT:    3835437  MISS:      34065  HIT %:    99.1197  MISS %:   0.880346   MPKI: 0.170325
L1D COMMIT LOAD NON_SPEC    ACCESS:    2284170  HIT:    1845681  MISS:     438489  HIT %:    80.8031  MISS %:    19.1969   MPKI: 2.19244
L1D COMMIT WRITE NON_SPEC    ACCESS:   16615708  HIT:     507324  MISS:   16108384  HIT %:    3.05328  MISS %:    96.9467   MPKI: 80.5419
L1D PREFETCH  REQUESTED:          0  ISSUED:          0  USEFUL:          0  USELESS:          0
L1D USEFUL LOAD PREFETCHES:          0 PREFETCH ISSUED TO LOWER LEVEL:          0  ACCURACY: -nan
L1D TIMELY PREFETCHES:          0 LATE PREFETCHES: 0 DROPPED PREFETCHES: 0
L1D COMMIT LATE PREFETCHES: 0 MISSED OPPORTUNITY: 0 LATE IN PQ: 0 UNCOVERED: 0
L1D COMMIT LATE MSHR PREFETCHES: 0
L1D MPKI TOTAL: 88.509 MSHR LATE: 0 PQ LATE: 0 COMMIT LATE: 0 MISSED OPPORTUNITY: 0 UNCOVERED: 0
L1D PREFETCHES SAME FILL-ORIGIN LEVEL: 0 DIFFERENT FILL-ORIGIN LEVEL: 0
L1D AVERAGE MISS LATENCY: 56.6034 cycles
L1D AVERAGE MISS LATENCY LOAD: 107.457 cycles
L1D AVERAGE MISS LATENCY PREFETCH: -nan cycles
L1D AVERAGE MSHR OCCUPANCY: 2.73017
L1D MSHR FULL: 0.0228266
L1D RQ	ACCESS:   30578135	FORWARD:          0	MERGED:     676887	TO_CACHE:   29900919
L1D WQ	ACCESS:   24120897	FORWARD:        329	MERGED:    3552381	TO_CACHE:   20568516

L1D UNIQUE REGIONS ACCESSED: 0
L1D REGIONS CONFLICTS: 0
L1D Cross Page Prefetch Requests: 0
L1D Same Page Prefetch Requests: 0
L1D ROI Sum of L1D PQ occupancy: 0
L1D PREFETCHES PUSHED FROM L2C: 0
L1I SPEC fills:          0  NON-SPEC fills:          0
L1I Test counter :          0
L1I Leapfrog:          0
L1I MSHR merge:          0
L1I TOTAL     ACCESS:   34180947  HIT:   34180947  MISS:          0  HIT %:        100  MISS %:          0   MPKI: 0
L1I LOAD      TOTAL       ACCESS:   34180947  HIT:   34180947  MISS:          0  HIT %:        100  MISS %:          0   MPKI: 0
L1I LOAD      NON_SPEC    ACCESS:   34180947  HIT:   34180947  MISS:          0  HIT %:        100  MISS %:          0   MPKI: 0
L1I PREFETCH  REQUESTED:          0  ISSUED:          0  USEFUL:          0  USELESS:          0
L1I USEFUL LOAD PREFETCHES:          0 PREFETCH ISSUED TO LOWER LEVEL:          0  ACCURACY: -nan
L1I TIMELY PREFETCHES:          0 LATE PREFETCHES: 0 DROPPED PREFETCHES: 0
L1I COMMIT LATE PREFETCHES: 0 MISSED OPPORTUNITY: 0 LATE IN PQ: 0 UNCOVERED: 0
L1I COMMIT LATE MSHR PREFETCHES: 0
L1I MPKI TOTAL: 0 MSHR LATE: 0 PQ LATE: 0 COMMIT LATE: 0 MISSED OPPORTUNITY: 0 UNCOVERED: 0
L1I PREFETCHES SAME FILL-ORIGIN LEVEL: 0 DIFFERENT FILL-ORIGIN LEVEL: 0
L1I AVERAGE MISS LATENCY: -nan cycles
L1I AVERAGE MISS LATENCY LOAD: -nan cycles
L1I AVERAGE MISS LATENCY PREFETCH: -nan cycles
L1I AVERAGE MSHR OCCUPANCY: 0
L1I MSHR FULL: 0
L1I RQ	ACCESS:   54167303	FORWARD:          0	MERGED:   19986354	TO_CACHE:   34180949

BTB SPEC fills:          0  NON-SPEC fills:          0
BTB Test counter :          0
BTB Leapfrog:          0
BTB MSHR merge:          0
BTB TOTAL     ACCESS:   41913137  HIT:   41913095  MISS:         42  HIT %:    99.9999  MISS %: 0.000100207   MPKI: 0.00021
BTB BRANCH_DIRECT_JUMP	ACCESS:     294369  HIT:     294357  MISS:         12
BTB BRANCH_INDIRECT	ACCESS:          0  HIT:          0  MISS:          0
BTB BRANCH_CONDITIONAL	ACCESS:   41618724  HIT:   41618709  MISS:         15
BTB BRANCH_DIRECT_CALL	ACCESS:         22  HIT:         15  MISS:          7
BTB BRANCH_INDIRECT_CALL	ACCESS:          0  HIT:          0  MISS:          0
BTB BRANCH_RETURN	ACCESS:         22  HIT:         14  MISS:          8
BTB BRANCH_OTHER ACCESS:          0  HIT:          0  MISS:          0

L2C SPEC fills:          0  NON-SPEC fills:     815520
L2C Test counter :          0
L2C Leapfrog:          0
L2C MSHR merge:     191636
L2C TOTAL     ACCESS:   40926538  HIT:   12012264  MISS:   28914274  HIT %:    29.3508  MISS %:    70.6492   MPKI: 144.571
L2C LOAD      TOTAL       ACCESS:   17678476  HIT:    4266332  MISS:   13412144  HIT %:    24.1329  MISS %:    75.8671   MPKI: 67.0607
L2C LOAD      NON_SPEC    ACCESS:    1012475  HIT:     196955  MISS:     815520  HIT %:    19.4528  MISS %:    80.5472   MPKI: 4.0776
L2C LOAD      SPEC        ACCESS:   16666001  HIT:    4069377  MISS:   12596624  HIT %:    24.4172  MISS %:    75.5828   MPKI: 62.9831
L2C RFO       NON_SPEC    ACCESS:      34058  HIT:        434  MISS:      33624  HIT %:     1.2743  MISS %:    98.7257   MPKI: 0.16812
L2C PREFETCH  NON_SPEC    ACCESS:    2931033  HIT:     219010  MISS:    2712023  HIT %:    7.47211  MISS %:    92.5279   MPKI: 13.5601
L2C WRITEBACK NON_SPEC    ACCESS:     262830  HIT:     262709  MISS:        121  HIT %:     99.954  MISS %:  0.0460374   MPKI: 0.000605
L2C CLEAN_EVICTION NON_SPEC    ACCESS:   12595755  HIT:     270931  MISS:   12324824  HIT %:    2.15097  MISS %:     97.849   MPKI: 61.6241
L2C COMMIT LOAD NON_SPEC    ACCESS:     438489  HIT:     169724  MISS:     268765  HIT %:    38.7066  MISS %:    61.2934   MPKI: 1.34382
L2C LOAD TRANSLATION NON_SPEC    ACCESS:    6985897  HIT:    6823124  MISS:     162773  HIT %:      97.67  MISS %:    2.33002   MPKI: 0.813865
L2C PREFETCH  REQUESTED:    5609074  ISSUED:    5608233  USEFUL:     981316  USELESS:    1731210
L2C USEFUL LOAD PREFETCHES:     981316 PREFETCH ISSUED TO LOWER LEVEL:    5146032  ACCURACY: 19.0694
L2C TIMELY PREFETCHES:     981316 LATE PREFETCHES: 191636 DROPPED PREFETCHES: 0
L2C COMMIT LATE PREFETCHES: 0 MISSED OPPORTUNITY: 0 LATE IN PQ: 0 UNCOVERED: 0
L2C COMMIT LATE MSHR PREFETCHES: 0
L2C MPKI TOTAL: 67.0607 MSHR LATE: 0.95818 PQ LATE: 0 COMMIT LATE: 0 MISSED OPPORTUNITY: 0 UNCOVERED: 0
L2C PREFETCHES SAME FILL-ORIGIN LEVEL: 2903659 DIFFERENT FILL-ORIGIN LEVEL: 2242373
L2C AVERAGE MISS LATENCY: 85.4593 cycles
L2C AVERAGE MISS LATENCY LOAD: 126.519 cycles
L2C AVERAGE MISS LATENCY PREFETCH: 267.305 cycles
L2C AVERAGE MSHR OCCUPANCY: 3.36767
L2C MSHR FULL: 3.41717e-05
L2C RQ	ACCESS:   25137315	FORWARD:          0	MERGED:          0	TO_CACHE:   25136921
L2C WQ	ACCESS:   12858585	FORWARD:        395	MERGED:          0	TO_CACHE:   12858585
L2C PQ	ACCESS:    5608233	FORWARD:          0	MERGED:      32420	TO_CACHE:    5575812

L2C Instructions Evicting Data 0
L2C Translations Evicting Data 161273
L2C Data Evicting Data 3793111
L2C Instructions Evicting Instructions 0
L2C Translations Evicting Instructions 0
L2C Data Evicting Instructions 0
L2C Instructions Evicting Translations 0
L2C Translations Evicting Translations 1500
L2C Data Evicting Translations 36821
L2C Dense regions hint from L2: 0
PSCL5 SPEC fills:          0  NON-SPEC fills:          0
PSCL5 Test counter :          0
PSCL5 Leapfrog:          0
PSCL5 MSHR merge:          0
PSCL5 TOTAL     ACCESS:          0  HIT:          0  MISS:          0  HIT %:       -nan  MISS %:       -nan   MPKI: 0
PSCL5 PREFETCH  REQUESTED:          0  ISSUED:          0  USEFUL:          0  USELESS:          0
PSCL5 USEFUL LOAD PREFETCHES:          0 PREFETCH ISSUED TO LOWER LEVEL:          0  ACCURACY: -nan
PSCL5 TIMELY PREFETCHES:          0 LATE PREFETCHES: 0 DROPPED PREFETCHES: 0
PSCL5 COMMIT LATE PREFETCHES: 0 MISSED OPPORTUNITY: 0 LATE IN PQ: 0 UNCOVERED: 0
PSCL5 COMMIT LATE MSHR PREFETCHES: 0
PSCL5 MPKI TOTAL: 0 MSHR LATE: 0 PQ LATE: 0 COMMIT LATE: 0 MISSED OPPORTUNITY: 0 UNCOVERED: 0
PSCL5 PREFETCHES SAME FILL-ORIGIN LEVEL: 0 DIFFERENT FILL-ORIGIN LEVEL: 0

PSCL4 SPEC fills:          0  NON-SPEC fills:          0
PSCL4 Test counter :          0
PSCL4 Leapfrog:          0
PSCL4 MSHR merge:          0
PSCL4 TOTAL     ACCESS:          0  HIT:          0  MISS:          0  HIT %:       -nan  MISS %:       -nan   MPKI: 0
PSCL4 PREFETCH  REQUESTED:          0  ISSUED:          0  USEFUL:          0  USELESS:          0
PSCL4 USEFUL LOAD PREFETCHES:          0 PREFETCH ISSUED TO LOWER LEVEL:          0  ACCURACY: -nan
PSCL4 TIMELY PREFETCHES:          0 LATE PREFETCHES: 0 DROPPED PREFETCHES: 0
PSCL4 COMMIT LATE PREFETCHES: 0 MISSED OPPORTUNITY: 0 LATE IN PQ: 0 UNCOVERED: 0
PSCL4 COMMIT LATE MSHR PREFETCHES: 0
PSCL4 MPKI TOTAL: 0 MSHR LATE: 0 PQ LATE: 0 COMMIT LATE: 0 MISSED OPPORTUNITY: 0 UNCOVERED: 0
PSCL4 PREFETCHES SAME FILL-ORIGIN LEVEL: 0 DIFFERENT FILL-ORIGIN LEVEL: 0

PSCL3 SPEC fills:          0  NON-SPEC fills:          0
PSCL3 Test counter :          0
PSCL3 Leapfrog:          0
PSCL3 MSHR merge:          0
PSCL3 TOTAL     ACCESS:          0  HIT:          0  MISS:          0  HIT %:       -nan  MISS %:       -nan   MPKI: 0
PSCL3 PREFETCH  REQUESTED:          0  ISSUED:          0  USEFUL:          0  USELESS:          0
PSCL3 USEFUL LOAD PREFETCHES:          0 PREFETCH ISSUED TO LOWER LEVEL:          0  ACCURACY: -nan
PSCL3 TIMELY PREFETCHES:          0 LATE PREFETCHES: 0 DROPPED PREFETCHES: 0
PSCL3 COMMIT LATE PREFETCHES: 0 MISSED OPPORTUNITY: 0 LATE IN PQ: 0 UNCOVERED: 0
PSCL3 COMMIT LATE MSHR PREFETCHES: 0
PSCL3 MPKI TOTAL: 0 MSHR LATE: 0 PQ LATE: 0 COMMIT LATE: 0 MISSED OPPORTUNITY: 0 UNCOVERED: 0
PSCL3 PREFETCHES SAME FILL-ORIGIN LEVEL: 0 DIFFERENT FILL-ORIGIN LEVEL: 0

PSCL2 SPEC fills:          0  NON-SPEC fills:          0
PSCL2 Test counter :          0
PSCL2 Leapfrog:          0
PSCL2 MSHR merge:          0
PSCL2 TOTAL     ACCESS:          0  HIT:          0  MISS:          0  HIT %:       -nan  MISS %:       -nan   MPKI: 0
PSCL2 PREFETCH  REQUESTED:          0  ISSUED:          0  USEFUL:          0  USELESS:          0
PSCL2 USEFUL LOAD PREFETCHES:          0 PREFETCH ISSUED TO LOWER LEVEL:          0  ACCURACY: -nan
PSCL2 TIMELY PREFETCHES:          0 LATE PREFETCHES: 0 DROPPED PREFETCHES: 0
PSCL2 COMMIT LATE PREFETCHES: 0 MISSED OPPORTUNITY: 0 LATE IN PQ: 0 UNCOVERED: 0
PSCL2 COMMIT LATE MSHR PREFETCHES: 0
PSCL2 MPKI TOTAL: 0 MSHR LATE: 0 PQ LATE: 0 COMMIT LATE: 0 MISSED OPPORTUNITY: 0 UNCOVERED: 0
PSCL2 PREFETCHES SAME FILL-ORIGIN LEVEL: 0 DIFFERENT FILL-ORIGIN LEVEL: 0

LLC SPEC fills:          0  NON-SPEC fills:     462726
LLC Test counter :          0
LLC Leapfrog:          0
LLC MSHR merge:      48895
LLC TOTAL     ACCESS:   31583803  HIT:   13812833  MISS:   17770970  HIT %:    43.7339  MISS %:    56.2661   MPKI: 88.8548
LLC LOAD      TOTAL       ACCESS:   13220286  HIT:    6633578  MISS:    6586708  HIT %:    50.1773  MISS %:    49.8227   MPKI: 32.9335
LLC LOAD      NON_SPEC    ACCESS:     810992  HIT:     348266  MISS:     462726  HIT %:    42.9432  MISS %:    57.0568   MPKI: 2.31363
LLC LOAD      SPEC        ACCESS:   12409294  HIT:    6285312  MISS:    6123982  HIT %:      50.65  MISS %:      49.35   MPKI: 30.6199
LLC RFO       NON_SPEC    ACCESS:      33624  HIT:        692  MISS:      32932  HIT %:    2.05805  MISS %:    97.9419   MPKI: 0.16466
LLC PREFETCH  NON_SPEC    ACCESS:    5066152  HIT:     991253  MISS:    4074899  HIT %:    19.5662  MISS %:    80.4338   MPKI: 20.3745
LLC WRITEBACK NON_SPEC    ACCESS:     252723  HIT:     252683  MISS:         40  HIT %:    99.9842  MISS %:  0.0158276   MPKI: 0.0002
LLC CLEAN_EVICTION NON_SPEC    ACCESS:   12579587  HIT:    5606458  MISS:    6973129  HIT %:    44.5679  MISS %:    55.4321   MPKI: 34.8656
LLC COMMIT LOAD NON_SPEC    ACCESS:     268658  HIT:     217992  MISS:      50666  HIT %:    81.1411  MISS %:    18.8589   MPKI: 0.25333
LLC LOAD TRANSLATION NON_SPEC    ACCESS:     162773  HIT:     110177  MISS:      52596  HIT %:    67.6875  MISS %:    32.3125   MPKI: 0.26298
LLC PREFETCH  REQUESTED:          0  ISSUED:          0  USEFUL:     381098  USELESS:    3698833
LLC USEFUL LOAD PREFETCHES:     381098 PREFETCH ISSUED TO LOWER LEVEL:    4123794  ACCURACY: 9.24144
LLC TIMELY PREFETCHES:     381098 LATE PREFETCHES: 48895 DROPPED PREFETCHES: 0
LLC COMMIT LATE PREFETCHES: 0 MISSED OPPORTUNITY: 0 LATE IN PQ: 0 UNCOVERED: 0
LLC COMMIT LATE MSHR PREFETCHES: 0
LLC MPKI TOTAL: 32.9335 MSHR LATE: 0.244475 PQ LATE: 0 COMMIT LATE: 0 MISSED OPPORTUNITY: 0 UNCOVERED: 0
LLC PREFETCHES SAME FILL-ORIGIN LEVEL: 1578067 DIFFERENT FILL-ORIGIN LEVEL: 0
LLC AVERAGE MISS LATENCY: 140.305 cycles
LLC AVERAGE MISS LATENCY LOAD: 207.368 cycles
LLC AVERAGE MISS LATENCY PREFETCH: 268.058 cycles
LLC AVERAGE MSHR OCCUPANCY: 2.96699
LLC MSHR FULL: 0
LLC RQ	ACCESS:   13685671	FORWARD:          0	MERGED:          0	TO_CACHE:   13685342
LLC WQ	ACCESS:   12832311	FORWARD:        344	MERGED:          0	TO_CACHE:   12832311
LLC PQ	ACCESS:    5146032	FORWARD:          0	MERGED:      13324	TO_CACHE:    5132693

LLC Dense regions hint to LLC: 0

RAW hits: 2450812
Loads Generated: 49476931
Loads sent to L1D: 47026118
Stores Generated: 7505174
Stores sent to L1D: 7505182
Major fault: 0 Minor fault: 33326
Allocated PAGES: 33326
Total Load insts: 60835151
Total Non-spec loads: 2495515
Percentage of speculative loads: 95.8979

LeapFrogging counter: 13731531
Commit hits: 24704775 miss: 20222498
Commit hit %: 54.9884 miss %: 45.0116
Commits not translated: 0
Loads retired: 17678855
Stores retired: 7505182
Cache fills: 17678863
L1D response latency: 107.457 cycles
Load retirement latency: 291.769 cycles
OOO test counter: 0
Discarded buffer inserts: 24704775 hits: 97341 hit %: 0.394017
Filter prediction accuracy: 99.2977
------------------
Depth Distribution
------------------
depth 0: 15559936
depth 1: 4998320
depth 2: 298367
depth 3: 350692
depth 4: 114898
depth 5: 15283
depth 6: 4288
depth 7: 4620
depth 8: 3494
depth 9: 1667
depth 10: 133
depth 11: 227
depth 12: 12
depth 13: 0
depth 14: 0
depth 15: 0
depth 16: 0
depth 17: 0
depth 18: 0
depth 19: 0
depth 20: 0
depth 21: 0
depth 22: 0
depth 23: 0
depth 24: 0
depth 25: 0
depth 26: 0
depth 27: 0
depth 28: 0
depth 29: 0
Total: 21351937
------------------
ST read accesses: 9974504
ST write accesses: 7703973
PT read accesses: 142065353
PT write accesses: 10838227
FILTER read accesses: 71287524
FILTER write accesses: 51689850
GHR read accesses: 65075797
GHR write accesses: 357781
PERC read accesses: 865813095
PERC write accesses: 54753691
GHR counter read accesses: 35356954
GHR counter write accesses: 23110978
GHR ip read accesses: 103702671
GHR ip write accesses: 70713908
ST tag read accesses: 10742396245
ST tag write accesses: 2040692282

DRAM Statistics
 CHANNEL 0
 RQ ROW_BUFFER_HIT:    2053698  ROW_BUFFER_MISS:    8737817
 DBUS_CONGESTED:       1995
 WQ ROW_BUFFER_HIT:    2140586  ROW_BUFFER_MISS:    5757628  FULL:       9676

 AVG_CONGESTED_CYCLE: 5
 All warmup complete: 2
Channel 0 Bank busy for read cycles: 0
Channel 0 Bank busy for write cycles: 0
Channel 0
Rank 0
0banks busy for read cycles: 23390369
0banks busy for write cycles: 45154
1banks busy for read cycles: 133699793
1banks busy for write cycles: 7455028
2banks busy for read cycles: 109478020
2banks busy for write cycles: 6528936
3banks busy for read cycles: 89007327
3banks busy for write cycles: 6648033
4banks busy for read cycles: 65854564
4banks busy for write cycles: 7334124
5banks busy for read cycles: 42802850
5banks busy for write cycles: 9349729
6banks busy for read cycles: 25852303
6banks busy for write cycles: 16089327
7banks busy for read cycles: 15675178
7banks busy for write cycles: 50833182
8banks busy for read cycles: 10439288
8banks busy for write cycles: 148956411

CPU 0 Branch Prediction Accuracy: 97.9623% MPKI: 4.27319 Average ROB Occupancy at Mispredict: 139.726
Branch types
NOT_BRANCH: 158057977 79.029%
BRANCH_DIRECT_JUMP: 294369 0.147184%
BRANCH_INDIRECT: 0 0%
BRANCH_CONDITIONAL: 41647482 20.8237%
BRANCH_DIRECT_CALL: 22 1.1e-05%
BRANCH_INDIRECT_CALL: 0 0%
BRANCH_RETURN: 22 1.1e-05%
BRANCH_OTHER: 0 0%

DRAM PAGES: 1048576
Allocated PAGES: 33326
