Initialize SIGNATURE TABLE
ST_SET: 1
ST_WAY: 256
ST_TAG_BIT: 16
ST_TAG_MASK: ffff

Initialize PATTERN TABLE
PT_SET: 512
PT_WAY: 4
SIG_DELTA_BIT: 7
C_SIG_BIT: 4
C_DELTA_BIT: 4

Initialize PREFETCH FILTER
FILTER_SET: 1024

Initialize PERCEPTRON
PERC_ENTRIES: 4096
PERC_FEATURES: 9

*** ChampSim Multicore Out-of-Order Simulator ***

Warmup Instructions: 50000000
Simulation Instructions: 200000000
Number of CPUs: 1
LLC sets: 2048
LLC ways: 16
L0D sets: 16
L0D ways: 2
ROB size: 352
LQ size: 128
SQ size: 72
Secure Berti: OFF
Berti: OFF
Berti Fill: OFF
On commit prefetching: OFF
Hit-based filter: ON
Time-guarding: ON
Free-slotting: ON
Leap-frogging: ON
Train prefetcher on L0D bypass: OFF
No translation penalty for prefetchers: OFF
Prefetch to L0D only: OFF
Prefetch to L1D only: OFF
Clean evictions: ON
Commit loads: ON
Commit write: ON
Fill commit loads to L2C, LLC: ON
DRAM IO FREQUENCY: 6400
ROB SIZE: 352
Off-chip DRAM Size: 4096 MB Channels: 1 Width: 64-bit Data Rate: 6400 MT/s
CPU 0 runs /home/sumon/secure_berti/GhostMinion/../../traces/gap/bfs-10.trace.gz
.gz
BTB has LRU replacement policy
ITLB has LRU replacement policy
DTLB has LRU replacement policy
STLB has LRU replacement policy
L1I has LRU replacement policy
L0D has LRU replacement policy
L1D has LRU replacement policy
PERC_ENTRIES: 4096
L2C has LRU replacement policy
LLC has LRU replacement policy
Heartbeat CPU 0 instructions: 10000002 cycles: 2972909 heartbeat IPC: 3.36371 cumulative IPC: 3.36371 (Simulation time: 0 hr 0 min 17 sec) 
Heartbeat CPU 0 instructions: 20000001 cycles: 6061911 heartbeat IPC: 3.23729 cumulative IPC: 3.29929 (Simulation time: 0 hr 0 min 44 sec) 
Heartbeat CPU 0 instructions: 30000003 cycles: 9141891 heartbeat IPC: 3.24677 cumulative IPC: 3.2816 (Simulation time: 0 hr 1 min 16 sec) 
Heartbeat CPU 0 instructions: 40000001 cycles: 12220524 heartbeat IPC: 3.24819 cumulative IPC: 3.27318 (Simulation time: 0 hr 1 min 48 sec) 
Heartbeat CPU 0 instructions: 50000000 cycles: 15299503 heartbeat IPC: 3.24783 cumulative IPC: 3.26808 (Simulation time: 0 hr 2 min 20 sec) 

Warmup complete CPU 0 instructions: 50000004 cycles: 15299504 (Simulation time: 0 hr 2 min 20 sec) 

Heartbeat CPU 0 instructions: 60000001 cycles: 51590944 heartbeat IPC: 0.275547 cumulative IPC: 0.275547 (Simulation time: 0 hr 3 min 1 sec) 
Heartbeat CPU 0 instructions: 70000003 cycles: 94111685 heartbeat IPC: 0.235179 cumulative IPC: 0.253768 (Simulation time: 0 hr 3 min 44 sec) 
Heartbeat CPU 0 instructions: 80000002 cycles: 125587408 heartbeat IPC: 0.317705 cumulative IPC: 0.272015 (Simulation time: 0 hr 4 min 19 sec) 
Heartbeat CPU 0 instructions: 90000000 cycles: 139876778 heartbeat IPC: 0.699821 cumulative IPC: 0.321086 (Simulation time: 0 hr 4 min 46 sec) 
Heartbeat CPU 0 instructions: 100000000 cycles: 158127469 heartbeat IPC: 0.547924 cumulative IPC: 0.350071 (Simulation time: 0 hr 5 min 15 sec) 
Heartbeat CPU 0 instructions: 110000000 cycles: 185937631 heartbeat IPC: 0.359581 cumulative IPC: 0.351621 (Simulation time: 0 hr 5 min 50 sec) 
Heartbeat CPU 0 instructions: 120000000 cycles: 225779426 heartbeat IPC: 0.250993 cumulative IPC: 0.332573 (Simulation time: 0 hr 6 min 28 sec) 
Heartbeat CPU 0 instructions: 130000002 cycles: 265641670 heartbeat IPC: 0.250864 cumulative IPC: 0.319563 (Simulation time: 0 hr 7 min 6 sec) 
Heartbeat CPU 0 instructions: 140000001 cycles: 308650235 heartbeat IPC: 0.232512 cumulative IPC: 0.3068 (Simulation time: 0 hr 7 min 45 sec) 
Heartbeat CPU 0 instructions: 150000003 cycles: 354070152 heartbeat IPC: 0.220168 cumulative IPC: 0.295185 (Simulation time: 0 hr 8 min 25 sec) 
Heartbeat CPU 0 instructions: 160000001 cycles: 379546341 heartbeat IPC: 0.392523 cumulative IPC: 0.301993 (Simulation time: 0 hr 8 min 56 sec) 
Heartbeat CPU 0 instructions: 170000001 cycles: 393222448 heartbeat IPC: 0.731202 cumulative IPC: 0.317525 (Simulation time: 0 hr 9 min 21 sec) 
Heartbeat CPU 0 instructions: 180000000 cycles: 413517192 heartbeat IPC: 0.492738 cumulative IPC: 0.326455 (Simulation time: 0 hr 9 min 51 sec) 
Heartbeat CPU 0 instructions: 190000000 cycles: 445228523 heartbeat IPC: 0.315345 cumulative IPC: 0.325635 (Simulation time: 0 hr 10 min 26 sec) 
Heartbeat CPU 0 instructions: 200000000 cycles: 484887487 heartbeat IPC: 0.25215 cumulative IPC: 0.319429 (Simulation time: 0 hr 11 min 3 sec) 
Heartbeat CPU 0 instructions: 210000002 cycles: 524574925 heartbeat IPC: 0.251969 cumulative IPC: 0.314172 (Simulation time: 0 hr 11 min 44 sec) 
Heartbeat CPU 0 instructions: 220000000 cycles: 569361287 heartbeat IPC: 0.223282 cumulative IPC: 0.306825 (Simulation time: 0 hr 12 min 30 sec) 
Heartbeat CPU 0 instructions: 230000000 cycles: 609559992 heartbeat IPC: 0.248764 cumulative IPC: 0.302897 (Simulation time: 0 hr 13 min 13 sec) 
Heartbeat CPU 0 instructions: 240000002 cycles: 631170422 heartbeat IPC: 0.46274 cumulative IPC: 0.308506 (Simulation time: 0 hr 13 min 47 sec) 
Heartbeat CPU 0 instructions: 250000001 cycles: 645274741 heartbeat IPC: 0.709003 cumulative IPC: 0.317473 (Simulation time: 0 hr 14 min 18 sec) 
Finished CPU 0 instructions: 200000002 cycles: 629975239 cumulative IPC: 0.317473 (Simulation time: 0 hr 14 min 18 sec) 
 Instruction ID: 250000036

ChampSim completed all CPUs

Region of Interest Statistics

CPU 0 cumulative IPC: 0.317473 instructions: 200000002 cycles: 629975239
ITLB SPEC fills:          0  NON-SPEC fills:          0
ITLB Test counter :          0
ITLB Leapfrog:          0
ITLB MSHR merge:          0
ITLB TOTAL     ACCESS:   33483692  HIT:   33483692  MISS:          0  HIT %:        100  MISS %:          0   MPKI: 0
ITLB LOAD TRANSLATION NON_SPEC    ACCESS:   33483692  HIT:   33483692  MISS:          0  HIT %:        100  MISS %:          0   MPKI: 0
ITLB PREFETCH  REQUESTED:          0  ISSUED:          0  USEFUL:          0  USELESS:          0
ITLB USEFUL LOAD PREFETCHES:          0 PREFETCH ISSUED TO LOWER LEVEL:          0  ACCURACY: -nan
ITLB TIMELY PREFETCHES:          0 LATE PREFETCHES: 0 DROPPED PREFETCHES: 0
ITLB COMMIT LATE PREFETCHES: 0 MISSED OPPORTUNITY: 0 LATE IN PQ: 0 UNCOVERED: 0
ITLB COMMIT LATE MSHR PREFETCHES: 0
ITLB MPKI TOTAL: 0 MSHR LATE: 0 PQ LATE: 0 COMMIT LATE: 0 MISSED OPPORTUNITY: 0 UNCOVERED: 0
ITLB PREFETCHES SAME FILL-ORIGIN LEVEL: 0 DIFFERENT FILL-ORIGIN LEVEL: 0
ITLB AVERAGE MISS LATENCY: -nan cycles
ITLB AVERAGE MISS LATENCY LOAD: -nan cycles
ITLB AVERAGE MISS LATENCY PREFETCH: -nan cycles
ITLB AVERAGE MSHR OCCUPANCY: 0
ITLB MSHR FULL: 0
ITLB RQ	ACCESS:   42011045	FORWARD:          0	MERGED:    8527353	TO_CACHE:   33483692

DTLB SPEC fills:          0  NON-SPEC fills:          0
DTLB Test counter :          0
DTLB Leapfrog:          0
DTLB MSHR merge:          0
DTLB TOTAL     ACCESS:   43788215  HIT:   43598080  MISS:     190135  HIT %:    99.5658  MISS %:   0.434215   MPKI: 0.950675
DTLB LOAD TRANSLATION NON_SPEC    ACCESS:   43788215  HIT:   43598080  MISS:     190135  HIT %:    99.5658  MISS %:   0.434215   MPKI: 0.950675
DTLB PREFETCH  REQUESTED:          0  ISSUED:          0  USEFUL:          0  USELESS:          0
DTLB USEFUL LOAD PREFETCHES:          0 PREFETCH ISSUED TO LOWER LEVEL:          0  ACCURACY: -nan
DTLB TIMELY PREFETCHES:          0 LATE PREFETCHES: 0 DROPPED PREFETCHES: 0
DTLB COMMIT LATE PREFETCHES: 0 MISSED OPPORTUNITY: 0 LATE IN PQ: 0 UNCOVERED: 0
DTLB COMMIT LATE MSHR PREFETCHES: 0
DTLB MPKI TOTAL: 0 MSHR LATE: 0 PQ LATE: 0 COMMIT LATE: 0 MISSED OPPORTUNITY: 0 UNCOVERED: 0
DTLB PREFETCHES SAME FILL-ORIGIN LEVEL: 0 DIFFERENT FILL-ORIGIN LEVEL: 0
DTLB AVERAGE MISS LATENCY: 113.828 cycles
DTLB AVERAGE MISS LATENCY LOAD: -nan cycles
DTLB AVERAGE MISS LATENCY PREFETCH: -nan cycles
DTLB AVERAGE MSHR OCCUPANCY: 0.00955188
DTLB MSHR FULL: 0
DTLB RQ	ACCESS:   46698756	FORWARD:          0	MERGED:    2899102	TO_CACHE:   43799654

STLB SPEC fills:          0  NON-SPEC fills:          0
STLB Test counter :          0
STLB Leapfrog:          0
STLB MSHR merge:          0
STLB TOTAL     ACCESS:     190135  HIT:      23175  MISS:     166960  HIT %:    12.1887  MISS %:    87.8113   MPKI: 0.8348
STLB LOAD TRANSLATION NON_SPEC    ACCESS:     190135  HIT:      23175  MISS:     166960  HIT %:    12.1887  MISS %:    87.8113   MPKI: 0.8348
STLB PREFETCH  REQUESTED:          0  ISSUED:          0  USEFUL:          0  USELESS:          0
STLB USEFUL LOAD PREFETCHES:          0 PREFETCH ISSUED TO LOWER LEVEL:          0  ACCURACY: -nan
STLB TIMELY PREFETCHES:          0 LATE PREFETCHES: 0 DROPPED PREFETCHES: 0
STLB COMMIT LATE PREFETCHES: 0 MISSED OPPORTUNITY: 0 LATE IN PQ: 0 UNCOVERED: 0
STLB COMMIT LATE MSHR PREFETCHES: 0
STLB MPKI TOTAL: 0 MSHR LATE: 0 PQ LATE: 0 COMMIT LATE: 0 MISSED OPPORTUNITY: 0 UNCOVERED: 0
STLB PREFETCHES SAME FILL-ORIGIN LEVEL: 0 DIFFERENT FILL-ORIGIN LEVEL: 0
STLB AVERAGE MISS LATENCY: 119.377 cycles
STLB AVERAGE MISS LATENCY LOAD: -nan cycles
STLB AVERAGE MISS LATENCY PREFETCH: -nan cycles
STLB AVERAGE MSHR OCCUPANCY: 0.122013
STLB MSHR FULL: 0
STLB RQ	ACCESS:     190135	FORWARD:          0	MERGED:          0	TO_CACHE:     190135

STLB Hit, L1D data hit: 0
STLB Hit, L2C data hit: 0
STLB Hit, LLC data hit: 0
STLB Hit, LLC data miss: 0
STLB STLB hints to L2: 0
L0D SPEC fills:   20809108  NON-SPEC fills:          0
L0D TimeGuard Request with older TS:      33222 Restricted eviction:       3828 read:        183
L0D Test counter :          0
L0D Leapfrog:          0
L0D MSHR merge:     864581
L0D TOTAL     ACCESS:   40291602  HIT:    3702986  MISS:   36588616  HIT %:    9.19047  MISS %:    90.8095   MPKI: 182.943
L0D LOAD      TOTAL       ACCESS:   40291602  HIT:    3702986  MISS:   36588616  HIT %:    9.19047  MISS %:    90.8095   MPKI: 182.943
L0D LOAD      NON_SPEC    ACCESS:   15775934  HIT:        254  MISS:   15775680  HIT %: 0.00161005  MISS %:    99.9984   MPKI: 78.8784
L0D LOAD      SPEC        ACCESS:   24515668  HIT:    3702732  MISS:   20812936  HIT %:    15.1035  MISS %:    84.8965   MPKI: 104.065
L0D PREFETCH  REQUESTED:          0  ISSUED:          0  USEFUL:          0  USELESS:          0
L0D USEFUL LOAD PREFETCHES:          0 PREFETCH ISSUED TO LOWER LEVEL:          0  ACCURACY: -nan
L0D TIMELY PREFETCHES:          0 LATE PREFETCHES: 0 DROPPED PREFETCHES: 0
L0D COMMIT LATE PREFETCHES: 0 MISSED OPPORTUNITY: 0 LATE IN PQ: 0 UNCOVERED: 0
L0D COMMIT LATE MSHR PREFETCHES: 0
L0D MPKI TOTAL: 187.266 MSHR LATE: 0 PQ LATE: 0 COMMIT LATE: 0 MISSED OPPORTUNITY: 0 UNCOVERED: 0
L0D PREFETCHES SAME FILL-ORIGIN LEVEL: 0 DIFFERENT FILL-ORIGIN LEVEL: 0
L0D AVERAGE MISS LATENCY: 10.0973 cycles
L0D AVERAGE MISS LATENCY LOAD: 10.0973 cycles
L0D AVERAGE MISS LATENCY PREFETCH: -nan cycles
L0D AVERAGE MSHR OCCUPANCY: 0.463533
L0D MSHR FULL: 0.000887687
L0D RQ	ACCESS:   49164438	FORWARD:          0	MERGED:    8008257	TO_CACHE:   41156181
L0D WQ	ACCESS:    5542575	FORWARD:          0	MERGED:          0	TO_CACHE:    5542575

L1D SPEC fills:          0  NON-SPEC fills:    2641492
L1D Test counter :          0
L1D Leapfrog:          0
L1D MSHR merge:         80
L1D TOTAL     ACCESS:   45099398  HIT:   37348298  MISS:    7751100  HIT %:    82.8133  MISS %:    17.1867   MPKI: 38.7555
L1D LOAD      TOTAL       ACCESS:   36588534  HIT:   31467016  MISS:    5121518  HIT %:    86.0024  MISS %:    13.9976   MPKI: 25.6076
L1D LOAD      NON_SPEC    ACCESS:   15775668  HIT:   13134176  MISS:    2641492  HIT %:    83.2559  MISS %:    16.7441   MPKI: 13.2075
L1D LOAD      SPEC        ACCESS:   20812866  HIT:   18332840  MISS:    2480026  HIT %:    88.0842  MISS %:    11.9158   MPKI: 12.4001
L1D RFO       NON_SPEC    ACCESS:    4662284  HIT:    4507438  MISS:     154846  HIT %:    96.6788  MISS %:    3.32125   MPKI: 0.77423
L1D COMMIT LOAD NON_SPEC    ACCESS:    1340064  HIT:    1336288  MISS:       3776  HIT %:    99.7182  MISS %:   0.281778   MPKI: 0.01888
L1D COMMIT WRITE NON_SPEC    ACCESS:    2508516  HIT:      37556  MISS:    2470960  HIT %:    1.49714  MISS %:    98.5029   MPKI: 12.3548
L1D PREFETCH  REQUESTED:          0  ISSUED:          0  USEFUL:          0  USELESS:          0
L1D USEFUL LOAD PREFETCHES:          0 PREFETCH ISSUED TO LOWER LEVEL:          0  ACCURACY: -nan
L1D TIMELY PREFETCHES:          0 LATE PREFETCHES: 0 DROPPED PREFETCHES: 0
L1D COMMIT LATE PREFETCHES: 0 MISSED OPPORTUNITY: 0 LATE IN PQ: 0 UNCOVERED: 0
L1D COMMIT LATE MSHR PREFETCHES: 0
L1D MPKI TOTAL: 25.608 MSHR LATE: 0 PQ LATE: 0 COMMIT LATE: 0 MISSED OPPORTUNITY: 0 UNCOVERED: 0
L1D PREFETCHES SAME FILL-ORIGIN LEVEL: 0 DIFFERENT FILL-ORIGIN LEVEL: 0
L1D AVERAGE MISS LATENCY: 26.7667 cycles
L1D AVERAGE MISS LATENCY LOAD: 36.039 cycles
L1D AVERAGE MISS LATENCY PREFETCH: -nan cycles
L1D AVERAGE MSHR OCCUPANCY: 0.147233
L1D MSHR FULL: 0.00101104
L1D RQ	ACCESS:   38540220	FORWARD:          0	MERGED:     536672	TO_CACHE:   37928859
L1D WQ	ACCESS:    8036486	FORWARD:      74689	MERGED:      39894	TO_CACHE:    7996592

L1D UNIQUE REGIONS ACCESSED: 0
L1D REGIONS CONFLICTS: 0
L1D Cross Page Prefetch Requests: 0
L1D Same Page Prefetch Requests: 0
L1D ROI Sum of L1D PQ occupancy: 0
L1D PREFETCHES PUSHED FROM L2C: 0
L1I SPEC fills:          0  NON-SPEC fills:          0
L1I Test counter :          0
L1I Leapfrog:          0
L1I MSHR merge:          1
L1I TOTAL     ACCESS:   42011043  HIT:   42011028  MISS:         15  HIT %:        100  MISS %: 3.57049e-05   MPKI: 7.5e-05
L1I LOAD      TOTAL       ACCESS:   42011043  HIT:   42011028  MISS:         15  HIT %:        100  MISS %: 3.57049e-05   MPKI: 7.5e-05
L1I LOAD      NON_SPEC    ACCESS:   42011043  HIT:   42011028  MISS:         15  HIT %:        100  MISS %: 3.57049e-05   MPKI: 7.5e-05
L1I PREFETCH  REQUESTED:          0  ISSUED:          0  USEFUL:          0  USELESS:          0
L1I USEFUL LOAD PREFETCHES:          0 PREFETCH ISSUED TO LOWER LEVEL:          0  ACCURACY: -nan
L1I TIMELY PREFETCHES:          0 LATE PREFETCHES: 0 DROPPED PREFETCHES: 0
L1I COMMIT LATE PREFETCHES: 0 MISSED OPPORTUNITY: 0 LATE IN PQ: 0 UNCOVERED: 0
L1I COMMIT LATE MSHR PREFETCHES: 0
L1I MPKI TOTAL: 8e-05 MSHR LATE: 0 PQ LATE: 0 COMMIT LATE: 0 MISSED OPPORTUNITY: 0 UNCOVERED: 0
L1I PREFETCHES SAME FILL-ORIGIN LEVEL: 0 DIFFERENT FILL-ORIGIN LEVEL: 0
L1I AVERAGE MISS LATENCY: 211.733 cycles
L1I AVERAGE MISS LATENCY LOAD: 211.733 cycles
L1I AVERAGE MISS LATENCY PREFETCH: -nan cycles
L1I AVERAGE MSHR OCCUPANCY: 1.90426e-07
L1I MSHR FULL: 0
L1I RQ	ACCESS:   65235870	FORWARD:          0	MERGED:   23224825	TO_CACHE:   42011045

BTB SPEC fills:          0  NON-SPEC fills:          0
BTB Test counter :          0
BTB Leapfrog:          0
BTB MSHR merge:          0
BTB TOTAL     ACCESS:   42321253  HIT:   42320934  MISS:        319  HIT %:    99.9992  MISS %: 0.000753758   MPKI: 0.001595
BTB BRANCH_DIRECT_JUMP	ACCESS:       5431  HIT:       5387  MISS:         44
BTB BRANCH_INDIRECT	ACCESS:          2  HIT:          1  MISS:          1
BTB BRANCH_CONDITIONAL	ACCESS:   42315308  HIT:   42315205  MISS:        103
BTB BRANCH_DIRECT_CALL	ACCESS:        250  HIT:        208  MISS:         42
BTB BRANCH_INDIRECT_CALL	ACCESS:          6  HIT:          3  MISS:          3
BTB BRANCH_RETURN	ACCESS:        256  HIT:        130  MISS:        126
BTB BRANCH_OTHER ACCESS:          0  HIT:          0  MISS:          0

L2C SPEC fills:          0  NON-SPEC fills:     612312
L2C Test counter :          0
L2C Leapfrog:          0
L2C MSHR merge:      41611
L2C TOTAL     ACCESS:   10955916  HIT:    6361293  MISS:    4594623  HIT %:    58.0626  MISS %:    41.9374   MPKI: 22.9731
L2C LOAD      TOTAL       ACCESS:    5121524  HIT:    4205788  MISS:     915736  HIT %:    82.1199  MISS %:    17.8801   MPKI: 4.57868
L2C LOAD      NON_SPEC    ACCESS:    2641507  HIT:    2029180  MISS:     612327  HIT %:     76.819  MISS %:     23.181   MPKI: 3.06163
L2C LOAD      SPEC        ACCESS:    2480017  HIT:    2176608  MISS:     303409  HIT %:    87.7658  MISS %:    12.2342   MPKI: 1.51704
L2C RFO       NON_SPEC    ACCESS:     154846  HIT:       9288  MISS:     145558  HIT %:    5.99822  MISS %:    94.0018   MPKI: 0.72779
L2C PREFETCH  NON_SPEC    ACCESS:    4029504  HIT:     829755  MISS:    3199749  HIT %:     20.592  MISS %:     79.408   MPKI: 15.9987
L2C WRITEBACK NON_SPEC    ACCESS:     306720  HIT:     306715  MISS:          5  HIT %:    99.9984  MISS %: 0.00163015   MPKI: 2.5e-05
L2C CLEAN_EVICTION NON_SPEC    ACCESS:     504753  HIT:     204878  MISS:     299875  HIT %:    40.5898  MISS %:    59.4102   MPKI: 1.49937
L2C COMMIT LOAD NON_SPEC    ACCESS:       3776  HIT:       2865  MISS:        911  HIT %:    75.8739  MISS %:    24.1261   MPKI: 0.004555
L2C LOAD TRANSLATION NON_SPEC    ACCESS:     834793  HIT:     802004  MISS:      32789  HIT %:    96.0722  MISS %:     3.9278   MPKI: 0.163945
L2C PREFETCH  REQUESTED:    4159108  ISSUED:    4159108  USEFUL:    2455340  USELESS:     746139
L2C USEFUL LOAD PREFETCHES:    2455340 PREFETCH ISSUED TO LOWER LEVEL:    3316866  ACCURACY: 74.0259
L2C TIMELY PREFETCHES:    2455340 LATE PREFETCHES: 41611 DROPPED PREFETCHES: 0
L2C COMMIT LATE PREFETCHES: 0 MISSED OPPORTUNITY: 0 LATE IN PQ: 0 UNCOVERED: 0
L2C COMMIT LATE MSHR PREFETCHES: 0
L2C MPKI TOTAL: 4.57868 MSHR LATE: 0.208055 PQ LATE: 0 COMMIT LATE: 0 MISSED OPPORTUNITY: 0 UNCOVERED: 0
L2C PREFETCHES SAME FILL-ORIGIN LEVEL: 3241360 DIFFERENT FILL-ORIGIN LEVEL: 75506
L2C AVERAGE MISS LATENCY: 139.187 cycles
L2C AVERAGE MISS LATENCY LOAD: 128.785 cycles
L2C AVERAGE MISS LATENCY PREFETCH: 154.544 cycles
L2C AVERAGE MSHR OCCUPANCY: 0.779922
L2C MSHR FULL: 0
L2C RQ	ACCESS:    6114948	FORWARD:          0	MERGED:          0	TO_CACHE:    6114939
L2C WQ	ACCESS:     811473	FORWARD:         10	MERGED:          0	TO_CACHE:     811473
L2C PQ	ACCESS:    4159108	FORWARD:          0	MERGED:       2650	TO_CACHE:    4156457

L2C Instructions Evicting Data 14
L2C Translations Evicting Data 32316
L2C Data Evicting Data 3929293
L2C Instructions Evicting Instructions 0
L2C Translations Evicting Instructions 1
L2C Data Evicting Instructions 12
L2C Instructions Evicting Translations 1
L2C Translations Evicting Translations 472
L2C Data Evicting Translations 29225
L2C Dense regions hint from L2: 0
PSCL5 SPEC fills:          0  NON-SPEC fills:          0
PSCL5 Test counter :          0
PSCL5 Leapfrog:          0
PSCL5 MSHR merge:          0
PSCL5 TOTAL     ACCESS:          0  HIT:          0  MISS:          0  HIT %:       -nan  MISS %:       -nan   MPKI: 0
PSCL5 PREFETCH  REQUESTED:          0  ISSUED:          0  USEFUL:          0  USELESS:          0
PSCL5 USEFUL LOAD PREFETCHES:          0 PREFETCH ISSUED TO LOWER LEVEL:          0  ACCURACY: -nan
PSCL5 TIMELY PREFETCHES:          0 LATE PREFETCHES: 0 DROPPED PREFETCHES: 0
PSCL5 COMMIT LATE PREFETCHES: 0 MISSED OPPORTUNITY: 0 LATE IN PQ: 0 UNCOVERED: 0
PSCL5 COMMIT LATE MSHR PREFETCHES: 0
PSCL5 MPKI TOTAL: 0 MSHR LATE: 0 PQ LATE: 0 COMMIT LATE: 0 MISSED OPPORTUNITY: 0 UNCOVERED: 0
PSCL5 PREFETCHES SAME FILL-ORIGIN LEVEL: 0 DIFFERENT FILL-ORIGIN LEVEL: 0

PSCL4 SPEC fills:          0  NON-SPEC fills:          0
PSCL4 Test counter :          0
PSCL4 Leapfrog:          0
PSCL4 MSHR merge:          0
PSCL4 TOTAL     ACCESS:          0  HIT:          0  MISS:          0  HIT %:       -nan  MISS %:       -nan   MPKI: 0
PSCL4 PREFETCH  REQUESTED:          0  ISSUED:          0  USEFUL:          0  USELESS:          0
PSCL4 USEFUL LOAD PREFETCHES:          0 PREFETCH ISSUED TO LOWER LEVEL:          0  ACCURACY: -nan
PSCL4 TIMELY PREFETCHES:          0 LATE PREFETCHES: 0 DROPPED PREFETCHES: 0
PSCL4 COMMIT LATE PREFETCHES: 0 MISSED OPPORTUNITY: 0 LATE IN PQ: 0 UNCOVERED: 0
PSCL4 COMMIT LATE MSHR PREFETCHES: 0
PSCL4 MPKI TOTAL: 0 MSHR LATE: 0 PQ LATE: 0 COMMIT LATE: 0 MISSED OPPORTUNITY: 0 UNCOVERED: 0
PSCL4 PREFETCHES SAME FILL-ORIGIN LEVEL: 0 DIFFERENT FILL-ORIGIN LEVEL: 0

PSCL3 SPEC fills:          0  NON-SPEC fills:          0
PSCL3 Test counter :          0
PSCL3 Leapfrog:          0
PSCL3 MSHR merge:          0
PSCL3 TOTAL     ACCESS:          0  HIT:          0  MISS:          0  HIT %:       -nan  MISS %:       -nan   MPKI: 0
PSCL3 PREFETCH  REQUESTED:          0  ISSUED:          0  USEFUL:          0  USELESS:          0
PSCL3 USEFUL LOAD PREFETCHES:          0 PREFETCH ISSUED TO LOWER LEVEL:          0  ACCURACY: -nan
PSCL3 TIMELY PREFETCHES:          0 LATE PREFETCHES: 0 DROPPED PREFETCHES: 0
PSCL3 COMMIT LATE PREFETCHES: 0 MISSED OPPORTUNITY: 0 LATE IN PQ: 0 UNCOVERED: 0
PSCL3 COMMIT LATE MSHR PREFETCHES: 0
PSCL3 MPKI TOTAL: 0 MSHR LATE: 0 PQ LATE: 0 COMMIT LATE: 0 MISSED OPPORTUNITY: 0 UNCOVERED: 0
PSCL3 PREFETCHES SAME FILL-ORIGIN LEVEL: 0 DIFFERENT FILL-ORIGIN LEVEL: 0

PSCL2 SPEC fills:          0  NON-SPEC fills:          0
PSCL2 Test counter :          0
PSCL2 Leapfrog:          0
PSCL2 MSHR merge:          0
PSCL2 TOTAL     ACCESS:          0  HIT:          0  MISS:          0  HIT %:       -nan  MISS %:       -nan   MPKI: 0
PSCL2 PREFETCH  REQUESTED:          0  ISSUED:          0  USEFUL:          0  USELESS:          0
PSCL2 USEFUL LOAD PREFETCHES:          0 PREFETCH ISSUED TO LOWER LEVEL:          0  ACCURACY: -nan
PSCL2 TIMELY PREFETCHES:          0 LATE PREFETCHES: 0 DROPPED PREFETCHES: 0
PSCL2 COMMIT LATE PREFETCHES: 0 MISSED OPPORTUNITY: 0 LATE IN PQ: 0 UNCOVERED: 0
PSCL2 COMMIT LATE MSHR PREFETCHES: 0
PSCL2 MPKI TOTAL: 0 MSHR LATE: 0 PQ LATE: 0 COMMIT LATE: 0 MISSED OPPORTUNITY: 0 UNCOVERED: 0
PSCL2 PREFETCHES SAME FILL-ORIGIN LEVEL: 0 DIFFERENT FILL-ORIGIN LEVEL: 0

LLC SPEC fills:          0  NON-SPEC fills:     461356
LLC Test counter :          0
LLC Leapfrog:          0
LLC MSHR merge:        396
LLC TOTAL     ACCESS:    5179714  HIT:     822085  MISS:    4357629  HIT %:    15.8712  MISS %:    84.1288   MPKI: 21.7881
LLC LOAD      TOTAL       ACCESS:     874122  HIT:     185559  MISS:     688563  HIT %:     21.228  MISS %:     78.772   MPKI: 3.44281
LLC LOAD      NON_SPEC    ACCESS:     585919  HIT:     124548  MISS:     461371  HIT %:    21.2569  MISS %:    78.7431   MPKI: 2.30685
LLC LOAD      SPEC        ACCESS:     288203  HIT:      61011  MISS:     227192  HIT %:    21.1695  MISS %:    78.8305   MPKI: 1.13596
LLC RFO       NON_SPEC    ACCESS:     145558  HIT:       4341  MISS:     141217  HIT %:    2.98232  MISS %:    97.0177   MPKI: 0.706085
LLC PREFETCH  NON_SPEC    ACCESS:    3315870  HIT:      68309  MISS:    3247561  HIT %:    2.06006  MISS %:    97.9399   MPKI: 16.2378
LLC WRITEBACK NON_SPEC    ACCESS:     303453  HIT:     300028  MISS:       3425  HIT %:    98.8713  MISS %:    1.12868   MPKI: 0.017125
LLC CLEAN_EVICTION NON_SPEC    ACCESS:     507011  HIT:     262583  MISS:     244428  HIT %:    51.7904  MISS %:    48.2096   MPKI: 1.22214
LLC COMMIT LOAD NON_SPEC    ACCESS:        911  HIT:        356  MISS:        555  HIT %:    39.0779  MISS %:    60.9221   MPKI: 0.002775
LLC LOAD TRANSLATION NON_SPEC    ACCESS:      32789  HIT:        909  MISS:      31880  HIT %:    2.77227  MISS %:    97.2277   MPKI: 0.1594
LLC PREFETCH  REQUESTED:          0  ISSUED:          0  USEFUL:      14058  USELESS:    3228410
LLC USEFUL LOAD PREFETCHES:      14058 PREFETCH ISSUED TO LOWER LEVEL:    3247957  ACCURACY: 0.432826
LLC TIMELY PREFETCHES:      14058 LATE PREFETCHES: 396 DROPPED PREFETCHES: 0
LLC COMMIT LATE PREFETCHES: 0 MISSED OPPORTUNITY: 0 LATE IN PQ: 0 UNCOVERED: 0
LLC COMMIT LATE MSHR PREFETCHES: 0
LLC MPKI TOTAL: 3.44281 MSHR LATE: 0.00198 PQ LATE: 0 COMMIT LATE: 0 MISSED OPPORTUNITY: 0 UNCOVERED: 0
LLC PREFETCHES SAME FILL-ORIGIN LEVEL: 53759 DIFFERENT FILL-ORIGIN LEVEL: 0
LLC AVERAGE MISS LATENCY: 120.814 cycles
LLC AVERAGE MISS LATENCY LOAD: 132.529 cycles
LLC AVERAGE MISS LATENCY PREFETCH: 127.329 cycles
LLC AVERAGE MSHR OCCUPANCY: 0.67277
LLC MSHR FULL: 0
LLC RQ	ACCESS:    1053383	FORWARD:          0	MERGED:          0	TO_CACHE:    1053380
LLC WQ	ACCESS:     810464	FORWARD:          3	MERGED:          0	TO_CACHE:     810464
LLC PQ	ACCESS:    3316866	FORWARD:          0	MERGED:         15	TO_CACHE:    3316851

LLC Dense regions hint to LLC: 0

RAW hits: 17065
Loads Generated: 49181504
Loads sent to L1D: 49164438
Stores Generated: 5542573
Stores sent to L1D: 5542575
Major fault: 0 Minor fault: 27212
Allocated PAGES: 27212
Total Load insts: 61471334
Total Non-spec loads: 15995036
Percentage of speculative loads: 73.9797

LeapFrogging counter: 14935
Commit hits: 20798412 miss: 12590068
Commit hit %: 62.2922 miss %: 37.7078
Commits not translated: 0
Loads retired: 5121518
Stores retired: 5542575
Cache fills: 5121518
L1D response latency: 36.039 cycles
Load retirement latency: 54.8198 cycles
OOO test counter: 0
Discarded buffer inserts: 20798412 hits: 20537 hit %: 0.0987431
Filter prediction accuracy: 99.4537
------------------
Depth Distribution
------------------
depth 0: 2964872
depth 1: 1050909
depth 2: 607261
depth 3: 494210
depth 4: 655544
depth 5: 35192
depth 6: 71402
depth 7: 260620
depth 8: 73340
depth 9: 42127
depth 10: 31863
depth 11: 277132
depth 12: 270624
depth 13: 51537
depth 14: 344584
depth 15: 54663
depth 16: 44307
depth 17: 20907
depth 18: 13571
depth 19: 2173
depth 20: 297
depth 21: 65
depth 22: 14
depth 23: 0
depth 24: 4
depth 25: 2
depth 26: 0
depth 27: 2
depth 28: 0
depth 29: 0
Total: 7367222
------------------
ST read accesses: 4951331
ST write accesses: 170178
PT read accesses: 143441824
PT write accesses: 7297366
FILTER read accesses: 31305340
FILTER write accesses: 15629341
GHR read accesses: 11550820
GHR write accesses: 1839987
PERC read accesses: 928043325
PERC write accesses: 40537948
GHR counter read accesses: 10243018
GHR counter write accesses: 12281737
GHR ip read accesses: 28513806
GHR ip write accesses: 20486036
ST tag read accesses: 2042575852
ST tag write accesses: 94851050

DRAM Statistics
 CHANNEL 0
 RQ ROW_BUFFER_HIT:    1872640  ROW_BUFFER_MISS:    2237118
 DBUS_CONGESTED:       5744
 WQ ROW_BUFFER_HIT:     167729  ROW_BUFFER_MISS:     603868  FULL:        542

 AVG_CONGESTED_CYCLE: 4
 All warmup complete: 2
Channel 0 Bank busy for read cycles: 0
Channel 0 Bank busy for write cycles: 0
Channel 0
Rank 0
0banks busy for read cycles: 275357313
0banks busy for write cycles: 405269
1banks busy for read cycles: 156000711
1banks busy for write cycles: 60338242
2banks busy for read cycles: 65978394
2banks busy for write cycles: 19967226
3banks busy for read cycles: 25841769
3banks busy for write cycles: 6717015
4banks busy for read cycles: 9248548
4banks busy for write cycles: 2313369
5banks busy for read cycles: 2437055
5banks busy for write cycles: 948124
6banks busy for read cycles: 1038984
6banks busy for write cycles: 522825
7banks busy for read cycles: 382158
7banks busy for write cycles: 444525
8banks busy for read cycles: 711849
8banks busy for write cycles: 1321864

CPU 0 Branch Prediction Accuracy: 85.7266% MPKI: 31.0332 Average ROB Occupancy at Mispredict: 6.85894
Branch types
NOT_BRANCH: 156515655 78.2578%
BRANCH_DIRECT_JUMP: 5431 0.0027155%
BRANCH_INDIRECT: 2 1e-06%
BRANCH_CONDITIONAL: 43478066 21.739%
BRANCH_DIRECT_CALL: 250 0.000125%
BRANCH_INDIRECT_CALL: 6 3e-06%
BRANCH_RETURN: 256 0.000128%
BRANCH_OTHER: 0 0%

DRAM PAGES: 1048576
Allocated PAGES: 27212
