Initialize SIGNATURE TABLE
ST_SET: 1
ST_WAY: 256
ST_TAG_BIT: 16
ST_TAG_MASK: ffff

Initialize PATTERN TABLE
PT_SET: 512
PT_WAY: 4
SIG_DELTA_BIT: 7
C_SIG_BIT: 4
C_DELTA_BIT: 4

Initialize PREFETCH FILTER
FILTER_SET: 1024

Initialize PERCEPTRON
PERC_ENTRIES: 4096
PERC_FEATURES: 9

*** ChampSim Multicore Out-of-Order Simulator ***

Warmup Instructions: 50000000
Simulation Instructions: 200000000
Number of CPUs: 1
LLC sets: 2048
LLC ways: 16
L0D sets: 16
L0D ways: 2
ROB size: 352
LQ size: 128
SQ size: 72
Secure Berti: OFF
Berti: OFF
Berti Fill: OFF
On commit prefetching: OFF
Hit-based filter: ON
Time-guarding: ON
Free-slotting: ON
Leap-frogging: ON
Train prefetcher on L0D bypass: OFF
No translation penalty for prefetchers: OFF
Prefetch to L0D only: OFF
Prefetch to L1D only: OFF
Clean evictions: ON
Commit loads: ON
Commit write: ON
Fill commit loads to L2C, LLC: ON
DRAM IO FREQUENCY: 6400
ROB SIZE: 352
Off-chip DRAM Size: 4096 MB Channels: 1 Width: 64-bit Data Rate: 6400 MT/s
CPU 0 runs /home/sumon/secure_berti/GhostMinion/../../traces/gap/cc-14.trace.gz
.gz
BTB has LRU replacement policy
ITLB has LRU replacement policy
DTLB has LRU replacement policy
STLB has LRU replacement policy
L1I has LRU replacement policy
L0D has LRU replacement policy
L1D has LRU replacement policy
PERC_ENTRIES: 4096
L2C has LRU replacement policy
LLC has LRU replacement policy
Heartbeat CPU 0 instructions: 10000003 cycles: 3228918 heartbeat IPC: 3.09701 cumulative IPC: 3.09701 (Simulation time: 0 hr 0 min 24 sec) 
Heartbeat CPU 0 instructions: 20000001 cycles: 6461599 heartbeat IPC: 3.09341 cumulative IPC: 3.09521 (Simulation time: 0 hr 0 min 55 sec) 
Heartbeat CPU 0 instructions: 30000002 cycles: 9702760 heartbeat IPC: 3.08531 cumulative IPC: 3.0919 (Simulation time: 0 hr 1 min 27 sec) 
Heartbeat CPU 0 instructions: 40000001 cycles: 12938677 heartbeat IPC: 3.09031 cumulative IPC: 3.09151 (Simulation time: 0 hr 2 min 0 sec) 
Heartbeat CPU 0 instructions: 50000002 cycles: 16177312 heartbeat IPC: 3.08772 cumulative IPC: 3.09075 (Simulation time: 0 hr 2 min 33 sec) 

Warmup complete CPU 0 instructions: 50000002 cycles: 16177312 (Simulation time: 0 hr 2 min 33 sec) 

Heartbeat CPU 0 instructions: 60000003 cycles: 55854139 heartbeat IPC: 0.252036 cumulative IPC: 0.252036 (Simulation time: 0 hr 3 min 19 sec) 
Heartbeat CPU 0 instructions: 70000001 cycles: 94706051 heartbeat IPC: 0.257388 cumulative IPC: 0.254684 (Simulation time: 0 hr 4 min 5 sec) 
Heartbeat CPU 0 instructions: 80000001 cycles: 134008251 heartbeat IPC: 0.254439 cumulative IPC: 0.254602 (Simulation time: 0 hr 4 min 50 sec) 
Heartbeat CPU 0 instructions: 90000000 cycles: 172141449 heartbeat IPC: 0.262239 cumulative IPC: 0.256469 (Simulation time: 0 hr 5 min 36 sec) 
Heartbeat CPU 0 instructions: 100000001 cycles: 210768217 heartbeat IPC: 0.258888 cumulative IPC: 0.256949 (Simulation time: 0 hr 6 min 23 sec) 
Heartbeat CPU 0 instructions: 110000000 cycles: 250080909 heartbeat IPC: 0.254371 cumulative IPC: 0.256516 (Simulation time: 0 hr 7 min 9 sec) 
Heartbeat CPU 0 instructions: 120000000 cycles: 289395023 heartbeat IPC: 0.254362 cumulative IPC: 0.256206 (Simulation time: 0 hr 7 min 54 sec) 
Heartbeat CPU 0 instructions: 130000003 cycles: 328810090 heartbeat IPC: 0.25371 cumulative IPC: 0.255891 (Simulation time: 0 hr 8 min 39 sec) 
Heartbeat CPU 0 instructions: 140000001 cycles: 367471853 heartbeat IPC: 0.258653 cumulative IPC: 0.256195 (Simulation time: 0 hr 9 min 24 sec) 
Heartbeat CPU 0 instructions: 150000001 cycles: 405852908 heartbeat IPC: 0.260545 cumulative IPC: 0.256624 (Simulation time: 0 hr 10 min 10 sec) 
Heartbeat CPU 0 instructions: 160000003 cycles: 444079323 heartbeat IPC: 0.261599 cumulative IPC: 0.257068 (Simulation time: 0 hr 10 min 56 sec) 
Heartbeat CPU 0 instructions: 170000000 cycles: 483340281 heartbeat IPC: 0.254706 cumulative IPC: 0.25687 (Simulation time: 0 hr 11 min 43 sec) 
Heartbeat CPU 0 instructions: 180000000 cycles: 522249610 heartbeat IPC: 0.257008 cumulative IPC: 0.25688 (Simulation time: 0 hr 12 min 35 sec) 
Heartbeat CPU 0 instructions: 190000000 cycles: 560271759 heartbeat IPC: 0.263005 cumulative IPC: 0.257308 (Simulation time: 0 hr 13 min 27 sec) 
Heartbeat CPU 0 instructions: 200000001 cycles: 599044601 heartbeat IPC: 0.257913 cumulative IPC: 0.257348 (Simulation time: 0 hr 14 min 19 sec) 
Heartbeat CPU 0 instructions: 210000000 cycles: 638035934 heartbeat IPC: 0.256467 cumulative IPC: 0.257293 (Simulation time: 0 hr 15 min 11 sec) 
Heartbeat CPU 0 instructions: 220000000 cycles: 677087742 heartbeat IPC: 0.25607 cumulative IPC: 0.257221 (Simulation time: 0 hr 16 min 4 sec) 
Heartbeat CPU 0 instructions: 230000000 cycles: 716890342 heartbeat IPC: 0.25124 cumulative IPC: 0.256881 (Simulation time: 0 hr 16 min 55 sec) 
Heartbeat CPU 0 instructions: 240000000 cycles: 755073898 heartbeat IPC: 0.261893 cumulative IPC: 0.25714 (Simulation time: 0 hr 17 min 46 sec) 
Heartbeat CPU 0 instructions: 250000002 cycles: 793109789 heartbeat IPC: 0.26291 cumulative IPC: 0.257423 (Simulation time: 0 hr 18 min 36 sec) 
Finished CPU 0 instructions: 200000000 cycles: 776932477 cumulative IPC: 0.257423 (Simulation time: 0 hr 18 min 36 sec) 
 Instruction ID: 250000145

ChampSim completed all CPUs

Region of Interest Statistics

CPU 0 cumulative IPC: 0.257423 instructions: 200000000 cycles: 776932477
ITLB SPEC fills:          0  NON-SPEC fills:          0
ITLB Test counter :          0
ITLB Leapfrog:          0
ITLB MSHR merge:          0
ITLB TOTAL     ACCESS:   30448306  HIT:   30448306  MISS:          0  HIT %:        100  MISS %:          0   MPKI: 0
ITLB LOAD TRANSLATION NON_SPEC    ACCESS:   30448306  HIT:   30448306  MISS:          0  HIT %:        100  MISS %:          0   MPKI: 0
ITLB PREFETCH  REQUESTED:          0  ISSUED:          0  USEFUL:          0  USELESS:          0
ITLB USEFUL LOAD PREFETCHES:          0 PREFETCH ISSUED TO LOWER LEVEL:          0  ACCURACY: -nan
ITLB TIMELY PREFETCHES:          0 LATE PREFETCHES: 0 DROPPED PREFETCHES: 0
ITLB COMMIT LATE PREFETCHES: 0 MISSED OPPORTUNITY: 0 LATE IN PQ: 0 UNCOVERED: 0
ITLB COMMIT LATE MSHR PREFETCHES: 0
ITLB MPKI TOTAL: 0 MSHR LATE: 0 PQ LATE: 0 COMMIT LATE: 0 MISSED OPPORTUNITY: 0 UNCOVERED: 0
ITLB PREFETCHES SAME FILL-ORIGIN LEVEL: 0 DIFFERENT FILL-ORIGIN LEVEL: 0
ITLB AVERAGE MISS LATENCY: -nan cycles
ITLB AVERAGE MISS LATENCY LOAD: -nan cycles
ITLB AVERAGE MISS LATENCY PREFETCH: -nan cycles
ITLB AVERAGE MSHR OCCUPANCY: 0
ITLB MSHR FULL: 0
ITLB RQ	ACCESS:   31037636	FORWARD:          0	MERGED:     589331	TO_CACHE:   30448305

DTLB SPEC fills:          0  NON-SPEC fills:          0
DTLB Test counter :          0
DTLB Leapfrog:          0
DTLB MSHR merge:          0
DTLB TOTAL     ACCESS:   47422429  HIT:   37721901  MISS:    9700528  HIT %:    79.5444  MISS %:    20.4556   MPKI: 48.5026
DTLB LOAD TRANSLATION NON_SPEC    ACCESS:   47422429  HIT:   37721901  MISS:    9700528  HIT %:    79.5444  MISS %:    20.4556   MPKI: 48.5026
DTLB PREFETCH  REQUESTED:          0  ISSUED:          0  USEFUL:          0  USELESS:          0
DTLB USEFUL LOAD PREFETCHES:          0 PREFETCH ISSUED TO LOWER LEVEL:          0  ACCURACY: -nan
DTLB TIMELY PREFETCHES:          0 LATE PREFETCHES: 0 DROPPED PREFETCHES: 0
DTLB COMMIT LATE PREFETCHES: 0 MISSED OPPORTUNITY: 0 LATE IN PQ: 0 UNCOVERED: 0
DTLB COMMIT LATE MSHR PREFETCHES: 0
DTLB MPKI TOTAL: 0 MSHR LATE: 0 PQ LATE: 0 COMMIT LATE: 0 MISSED OPPORTUNITY: 0 UNCOVERED: 0
DTLB PREFETCHES SAME FILL-ORIGIN LEVEL: 0 DIFFERENT FILL-ORIGIN LEVEL: 0
DTLB AVERAGE MISS LATENCY: 9.52897 cycles
DTLB AVERAGE MISS LATENCY LOAD: -nan cycles
DTLB AVERAGE MISS LATENCY PREFETCH: -nan cycles
DTLB AVERAGE MSHR OCCUPANCY: 0.342487
DTLB MSHR FULL: 0.00209332
DTLB RQ	ACCESS:   49661743	FORWARD:          0	MERGED:    1947745	TO_CACHE:   47713998

STLB SPEC fills:          0  NON-SPEC fills:          0
STLB Test counter :          0
STLB Leapfrog:          0
STLB MSHR merge:          0
STLB TOTAL     ACCESS:    9700528  HIT:    9685884  MISS:      14644  HIT %:     99.849  MISS %:   0.150961   MPKI: 0.07322
STLB LOAD TRANSLATION NON_SPEC    ACCESS:    9700528  HIT:    9685884  MISS:      14644  HIT %:     99.849  MISS %:   0.150961   MPKI: 0.07322
STLB PREFETCH  REQUESTED:          0  ISSUED:          0  USEFUL:          0  USELESS:          0
STLB USEFUL LOAD PREFETCHES:          0 PREFETCH ISSUED TO LOWER LEVEL:          0  ACCURACY: -nan
STLB TIMELY PREFETCHES:          0 LATE PREFETCHES: 0 DROPPED PREFETCHES: 0
STLB COMMIT LATE PREFETCHES: 0 MISSED OPPORTUNITY: 0 LATE IN PQ: 0 UNCOVERED: 0
STLB COMMIT LATE MSHR PREFETCHES: 0
STLB MPKI TOTAL: 0 MSHR LATE: 0 PQ LATE: 0 COMMIT LATE: 0 MISSED OPPORTUNITY: 0 UNCOVERED: 0
STLB PREFETCHES SAME FILL-ORIGIN LEVEL: 0 DIFFERENT FILL-ORIGIN LEVEL: 0
STLB AVERAGE MISS LATENCY: 188.173 cycles
STLB AVERAGE MISS LATENCY LOAD: -nan cycles
STLB AVERAGE MISS LATENCY PREFETCH: -nan cycles
STLB AVERAGE MSHR OCCUPANCY: 0.00121158
STLB MSHR FULL: 0
STLB RQ	ACCESS:    9700529	FORWARD:          0	MERGED:          0	TO_CACHE:    9700529

STLB Hit, L1D data hit: 0
STLB Hit, L2C data hit: 0
STLB Hit, LLC data hit: 0
STLB Hit, LLC data miss: 0
STLB STLB hints to L2: 0
L0D SPEC fills:   24788608  NON-SPEC fills:          0
L0D TimeGuard Request with older TS:     634373 Restricted eviction:     263848 read:     575915
L0D Test counter :          0
L0D Leapfrog:          0
L0D MSHR merge:    1568831
L0D TOTAL     ACCESS:   47845404  HIT:   12419801  MISS:   35425603  HIT %:    25.9582  MISS %:    74.0418   MPKI: 177.128
L0D LOAD      TOTAL       ACCESS:   47845404  HIT:   12419801  MISS:   35425603  HIT %:    25.9582  MISS %:    74.0418   MPKI: 177.128
L0D LOAD      NON_SPEC    ACCESS:   11299207  HIT:     926060  MISS:   10373147  HIT %:     8.1958  MISS %:    91.8042   MPKI: 51.8657
L0D LOAD      SPEC        ACCESS:   36546197  HIT:   11493741  MISS:   25052456  HIT %:    31.4499  MISS %:    68.5501   MPKI: 125.262
L0D PREFETCH  REQUESTED:          0  ISSUED:          0  USEFUL:          0  USELESS:          0
L0D USEFUL LOAD PREFETCHES:          0 PREFETCH ISSUED TO LOWER LEVEL:          0  ACCURACY: -nan
L0D TIMELY PREFETCHES:          0 LATE PREFETCHES: 0 DROPPED PREFETCHES: 0
L0D COMMIT LATE PREFETCHES: 0 MISSED OPPORTUNITY: 0 LATE IN PQ: 0 UNCOVERED: 0
L0D COMMIT LATE MSHR PREFETCHES: 0
L0D MPKI TOTAL: 184.972 MSHR LATE: 0 PQ LATE: 0 COMMIT LATE: 0 MISSED OPPORTUNITY: 0 UNCOVERED: 0
L0D PREFETCHES SAME FILL-ORIGIN LEVEL: 0 DIFFERENT FILL-ORIGIN LEVEL: 0
L0D AVERAGE MISS LATENCY: 32.6187 cycles
L0D AVERAGE MISS LATENCY LOAD: 32.6187 cycles
L0D AVERAGE MISS LATENCY PREFETCH: -nan cycles
L0D AVERAGE MSHR OCCUPANCY: 2.00927
L0D MSHR FULL: 0.0381353
L0D RQ	ACCESS:   55035489	FORWARD:          0	MERGED:    5621252	TO_CACHE:   49414237
L0D WQ	ACCESS:     247506	FORWARD:          0	MERGED:          0	TO_CACHE:     247506

L1D SPEC fills:          0  NON-SPEC fills:    3554983
L1D Test counter :          0
L1D Leapfrog:          0
L1D MSHR merge:       6786
L1D TOTAL     ACCESS:   48385844  HIT:   21917809  MISS:   26468035  HIT %:     45.298  MISS %:     54.702   MPKI: 132.34
L1D LOAD      TOTAL       ACCESS:   35418817  HIT:   20368143  MISS:   15050674  HIT %:    57.5066  MISS %:    42.4934   MPKI: 75.2534
L1D LOAD      NON_SPEC    ACCESS:   10372636  HIT:    6817653  MISS:    3554983  HIT %:    65.7273  MISS %:    34.2727   MPKI: 17.7749
L1D LOAD      SPEC        ACCESS:   25046181  HIT:   13550490  MISS:   11495691  HIT %:     54.102  MISS %:     45.898   MPKI: 57.4785
L1D RFO       NON_SPEC    ACCESS:     246187  HIT:     246184  MISS:          3  HIT %:    99.9988  MISS %: 0.00121859   MPKI: 1.5e-05
L1D COMMIT LOAD NON_SPEC    ACCESS:    1302152  HIT:    1034676  MISS:     267476  HIT %:    79.4589  MISS %:    20.5411   MPKI: 1.33738
L1D COMMIT WRITE NON_SPEC    ACCESS:   11418688  HIT:     268806  MISS:   11149882  HIT %:    2.35409  MISS %:    97.6459   MPKI: 55.7494
L1D PREFETCH  REQUESTED:          0  ISSUED:          0  USEFUL:          0  USELESS:          0
L1D USEFUL LOAD PREFETCHES:          0 PREFETCH ISSUED TO LOWER LEVEL:          0  ACCURACY: -nan
L1D TIMELY PREFETCHES:          0 LATE PREFETCHES: 0 DROPPED PREFETCHES: 0
L1D COMMIT LATE PREFETCHES: 0 MISSED OPPORTUNITY: 0 LATE IN PQ: 0 UNCOVERED: 0
L1D COMMIT LATE MSHR PREFETCHES: 0
L1D MPKI TOTAL: 75.2873 MSHR LATE: 0 PQ LATE: 0 COMMIT LATE: 0 MISSED OPPORTUNITY: 0 UNCOVERED: 0
L1D PREFETCHES SAME FILL-ORIGIN LEVEL: 0 DIFFERENT FILL-ORIGIN LEVEL: 0
L1D AVERAGE MISS LATENCY: 37.1893 cycles
L1D AVERAGE MISS LATENCY LOAD: 64.717 cycles
L1D AVERAGE MISS LATENCY PREFETCH: -nan cycles
L1D AVERAGE MSHR OCCUPANCY: 1.32313
L1D MSHR FULL: 0
L1D RQ	ACCESS:   37045010	FORWARD:          0	MERGED:     295753	TO_CACHE:   36741284
L1D WQ	ACCESS:   11667310	FORWARD:       7973	MERGED:       1118	TO_CACHE:   11666192

L1D UNIQUE REGIONS ACCESSED: 0
L1D REGIONS CONFLICTS: 0
L1D Cross Page Prefetch Requests: 0
L1D Same Page Prefetch Requests: 0
L1D ROI Sum of L1D PQ occupancy: 0
L1D PREFETCHES PUSHED FROM L2C: 0
L1I SPEC fills:          0  NON-SPEC fills:          0
L1I Test counter :          0
L1I Leapfrog:          0
L1I MSHR merge:          0
L1I TOTAL     ACCESS:   31037637  HIT:   31037637  MISS:          0  HIT %:        100  MISS %:          0   MPKI: 0
L1I LOAD      TOTAL       ACCESS:   31037637  HIT:   31037637  MISS:          0  HIT %:        100  MISS %:          0   MPKI: 0
L1I LOAD      NON_SPEC    ACCESS:   31037637  HIT:   31037637  MISS:          0  HIT %:        100  MISS %:          0   MPKI: 0
L1I PREFETCH  REQUESTED:          0  ISSUED:          0  USEFUL:          0  USELESS:          0
L1I USEFUL LOAD PREFETCHES:          0 PREFETCH ISSUED TO LOWER LEVEL:          0  ACCURACY: -nan
L1I TIMELY PREFETCHES:          0 LATE PREFETCHES: 0 DROPPED PREFETCHES: 0
L1I COMMIT LATE PREFETCHES: 0 MISSED OPPORTUNITY: 0 LATE IN PQ: 0 UNCOVERED: 0
L1I COMMIT LATE MSHR PREFETCHES: 0
L1I MPKI TOTAL: 0 MSHR LATE: 0 PQ LATE: 0 COMMIT LATE: 0 MISSED OPPORTUNITY: 0 UNCOVERED: 0
L1I PREFETCHES SAME FILL-ORIGIN LEVEL: 0 DIFFERENT FILL-ORIGIN LEVEL: 0
L1I AVERAGE MISS LATENCY: -nan cycles
L1I AVERAGE MISS LATENCY LOAD: -nan cycles
L1I AVERAGE MISS LATENCY PREFETCH: -nan cycles
L1I AVERAGE MSHR OCCUPANCY: 0
L1I MSHR FULL: 0
L1I RQ	ACCESS:   55635570	FORWARD:          0	MERGED:   24597934	TO_CACHE:   31037636

BTB SPEC fills:          0  NON-SPEC fills:          0
BTB Test counter :          0
BTB Leapfrog:          0
BTB MSHR merge:          0
BTB TOTAL     ACCESS:   40353859  HIT:   40353854  MISS:          5  HIT %:        100  MISS %: 1.23904e-05   MPKI: 2.5e-05
BTB BRANCH_DIRECT_JUMP	ACCESS:          0  HIT:          0  MISS:          0
BTB BRANCH_INDIRECT	ACCESS:          0  HIT:          0  MISS:          0
BTB BRANCH_CONDITIONAL	ACCESS:   40353859  HIT:   40353854  MISS:          5
BTB BRANCH_DIRECT_CALL	ACCESS:          0  HIT:          0  MISS:          0
BTB BRANCH_INDIRECT_CALL	ACCESS:          0  HIT:          0  MISS:          0
BTB BRANCH_RETURN	ACCESS:          0  HIT:          0  MISS:          0
BTB BRANCH_OTHER ACCESS:          0  HIT:          0  MISS:          0

L2C SPEC fills:          0  NON-SPEC fills:    2252518
L2C Test counter :          0
L2C Leapfrog:          0
L2C MSHR merge:      48975
L2C TOTAL     ACCESS:   24998758  HIT:    6088653  MISS:   18910105  HIT %:    24.3558  MISS %:    75.6442   MPKI: 94.5505
L2C LOAD      TOTAL       ACCESS:   15050401  HIT:    5320854  MISS:    9729547  HIT %:    35.3536  MISS %:    64.6464   MPKI: 48.6477
L2C LOAD      NON_SPEC    ACCESS:    3554978  HIT:    1302460  MISS:    2252518  HIT %:    36.6376  MISS %:    63.3624   MPKI: 11.2626
L2C LOAD      SPEC        ACCESS:   11495423  HIT:    4018394  MISS:    7477029  HIT %:    34.9565  MISS %:    65.0435   MPKI: 37.3851
L2C RFO       NON_SPEC    ACCESS:          3  HIT:          3  MISS:          0  HIT %:        100  MISS %:          0   MPKI: 0
L2C PREFETCH  NON_SPEC    ACCESS:    2067411  HIT:     364115  MISS:    1703296  HIT %:    17.6121  MISS %:    82.3879   MPKI: 8.51648
L2C WRITEBACK NON_SPEC    ACCESS:      39051  HIT:      39051  MISS:          0  HIT %:        100  MISS %:          0   MPKI: 0
L2C CLEAN_EVICTION NON_SPEC    ACCESS:    7501225  HIT:     172270  MISS:    7328955  HIT %:    2.29656  MISS %:    97.7034   MPKI: 36.6448
L2C COMMIT LOAD NON_SPEC    ACCESS:     267476  HIT:     123542  MISS:     143934  HIT %:    46.1881  MISS %:    53.8119   MPKI: 0.71967
L2C LOAD TRANSLATION NON_SPEC    ACCESS:      73191  HIT:      68818  MISS:       4373  HIT %:    94.0252  MISS %:    5.97478   MPKI: 0.021865
L2C PREFETCH  REQUESTED:    3223895  ISSUED:    3223862  USEFUL:    1013097  USELESS:     690317
L2C USEFUL LOAD PREFETCHES:    1013097 PREFETCH ISSUED TO LOWER LEVEL:    2769498  ACCURACY: 36.5805
L2C TIMELY PREFETCHES:    1013097 LATE PREFETCHES: 48975 DROPPED PREFETCHES: 0
L2C COMMIT LATE PREFETCHES: 0 MISSED OPPORTUNITY: 0 LATE IN PQ: 0 UNCOVERED: 0
L2C COMMIT LATE MSHR PREFETCHES: 0
L2C MPKI TOTAL: 48.6477 MSHR LATE: 0.244875 PQ LATE: 0 COMMIT LATE: 0 MISSED OPPORTUNITY: 0 UNCOVERED: 0
L2C PREFETCHES SAME FILL-ORIGIN LEVEL: 1752271 DIFFERENT FILL-ORIGIN LEVEL: 1017227
L2C AVERAGE MISS LATENCY: 59.3161 cycles
L2C AVERAGE MISS LATENCY LOAD: 81.4434 cycles
L2C AVERAGE MISS LATENCY PREFETCH: 189.347 cycles
L2C AVERAGE MSHR OCCUPANCY: 1.84575
L2C MSHR FULL: 0
L2C RQ	ACCESS:   15391347	FORWARD:          0	MERGED:          0	TO_CACHE:   15391074
L2C WQ	ACCESS:    7540276	FORWARD:        274	MERGED:          0	TO_CACHE:    7540276
L2C PQ	ACCESS:    3223862	FORWARD:          0	MERGED:       9515	TO_CACHE:    3214346

L2C Instructions Evicting Data 0
L2C Translations Evicting Data 4371
L2C Data Evicting Data 4098186
L2C Instructions Evicting Instructions 0
L2C Translations Evicting Instructions 0
L2C Data Evicting Instructions 0
L2C Instructions Evicting Translations 0
L2C Translations Evicting Translations 2
L2C Data Evicting Translations 1562
L2C Dense regions hint from L2: 0
PSCL5 SPEC fills:          0  NON-SPEC fills:          0
PSCL5 Test counter :          0
PSCL5 Leapfrog:          0
PSCL5 MSHR merge:          0
PSCL5 TOTAL     ACCESS:          0  HIT:          0  MISS:          0  HIT %:       -nan  MISS %:       -nan   MPKI: 0
PSCL5 PREFETCH  REQUESTED:          0  ISSUED:          0  USEFUL:          0  USELESS:          0
PSCL5 USEFUL LOAD PREFETCHES:          0 PREFETCH ISSUED TO LOWER LEVEL:          0  ACCURACY: -nan
PSCL5 TIMELY PREFETCHES:          0 LATE PREFETCHES: 0 DROPPED PREFETCHES: 0
PSCL5 COMMIT LATE PREFETCHES: 0 MISSED OPPORTUNITY: 0 LATE IN PQ: 0 UNCOVERED: 0
PSCL5 COMMIT LATE MSHR PREFETCHES: 0
PSCL5 MPKI TOTAL: 0 MSHR LATE: 0 PQ LATE: 0 COMMIT LATE: 0 MISSED OPPORTUNITY: 0 UNCOVERED: 0
PSCL5 PREFETCHES SAME FILL-ORIGIN LEVEL: 0 DIFFERENT FILL-ORIGIN LEVEL: 0

PSCL4 SPEC fills:          0  NON-SPEC fills:          0
PSCL4 Test counter :          0
PSCL4 Leapfrog:          0
PSCL4 MSHR merge:          0
PSCL4 TOTAL     ACCESS:          0  HIT:          0  MISS:          0  HIT %:       -nan  MISS %:       -nan   MPKI: 0
PSCL4 PREFETCH  REQUESTED:          0  ISSUED:          0  USEFUL:          0  USELESS:          0
PSCL4 USEFUL LOAD PREFETCHES:          0 PREFETCH ISSUED TO LOWER LEVEL:          0  ACCURACY: -nan
PSCL4 TIMELY PREFETCHES:          0 LATE PREFETCHES: 0 DROPPED PREFETCHES: 0
PSCL4 COMMIT LATE PREFETCHES: 0 MISSED OPPORTUNITY: 0 LATE IN PQ: 0 UNCOVERED: 0
PSCL4 COMMIT LATE MSHR PREFETCHES: 0
PSCL4 MPKI TOTAL: 0 MSHR LATE: 0 PQ LATE: 0 COMMIT LATE: 0 MISSED OPPORTUNITY: 0 UNCOVERED: 0
PSCL4 PREFETCHES SAME FILL-ORIGIN LEVEL: 0 DIFFERENT FILL-ORIGIN LEVEL: 0

PSCL3 SPEC fills:          0  NON-SPEC fills:          0
PSCL3 Test counter :          0
PSCL3 Leapfrog:          0
PSCL3 MSHR merge:          0
PSCL3 TOTAL     ACCESS:          0  HIT:          0  MISS:          0  HIT %:       -nan  MISS %:       -nan   MPKI: 0
PSCL3 PREFETCH  REQUESTED:          0  ISSUED:          0  USEFUL:          0  USELESS:          0
PSCL3 USEFUL LOAD PREFETCHES:          0 PREFETCH ISSUED TO LOWER LEVEL:          0  ACCURACY: -nan
PSCL3 TIMELY PREFETCHES:          0 LATE PREFETCHES: 0 DROPPED PREFETCHES: 0
PSCL3 COMMIT LATE PREFETCHES: 0 MISSED OPPORTUNITY: 0 LATE IN PQ: 0 UNCOVERED: 0
PSCL3 COMMIT LATE MSHR PREFETCHES: 0
PSCL3 MPKI TOTAL: 0 MSHR LATE: 0 PQ LATE: 0 COMMIT LATE: 0 MISSED OPPORTUNITY: 0 UNCOVERED: 0
PSCL3 PREFETCHES SAME FILL-ORIGIN LEVEL: 0 DIFFERENT FILL-ORIGIN LEVEL: 0

PSCL2 SPEC fills:          0  NON-SPEC fills:          0
PSCL2 Test counter :          0
PSCL2 Leapfrog:          0
PSCL2 MSHR merge:          0
PSCL2 TOTAL     ACCESS:          0  HIT:          0  MISS:          0  HIT %:       -nan  MISS %:       -nan   MPKI: 0
PSCL2 PREFETCH  REQUESTED:          0  ISSUED:          0  USEFUL:          0  USELESS:          0
PSCL2 USEFUL LOAD PREFETCHES:          0 PREFETCH ISSUED TO LOWER LEVEL:          0  ACCURACY: -nan
PSCL2 TIMELY PREFETCHES:          0 LATE PREFETCHES: 0 DROPPED PREFETCHES: 0
PSCL2 COMMIT LATE PREFETCHES: 0 MISSED OPPORTUNITY: 0 LATE IN PQ: 0 UNCOVERED: 0
PSCL2 COMMIT LATE MSHR PREFETCHES: 0
PSCL2 MPKI TOTAL: 0 MSHR LATE: 0 PQ LATE: 0 COMMIT LATE: 0 MISSED OPPORTUNITY: 0 UNCOVERED: 0
PSCL2 PREFETCHES SAME FILL-ORIGIN LEVEL: 0 DIFFERENT FILL-ORIGIN LEVEL: 0

LLC SPEC fills:          0  NON-SPEC fills:     772987
LLC Test counter :          0
LLC Leapfrog:          0
LLC MSHR merge:       8147
LLC TOTAL     ACCESS:   20110761  HIT:   11611476  MISS:    8499285  HIT %:    57.7376  MISS %:    42.2624   MPKI: 42.4964
LLC LOAD      TOTAL       ACCESS:    9680474  HIT:    6275354  MISS:    3405120  HIT %:    64.8249  MISS %:    35.1751   MPKI: 17.0256
LLC LOAD      NON_SPEC    ACCESS:    2250151  HIT:    1477164  MISS:     772987  HIT %:    65.6473  MISS %:    34.3527   MPKI: 3.86494
LLC LOAD      SPEC        ACCESS:    7430323  HIT:    4798190  MISS:    2632133  HIT %:    64.5758  MISS %:    35.4242   MPKI: 13.1607
LLC PREFETCH  NON_SPEC    ACCESS:    2756000  HIT:     792856  MISS:    1963144  HIT %:    28.7684  MISS %:    71.2316   MPKI: 9.81572
LLC WRITEBACK NON_SPEC    ACCESS:      35930  HIT:      35928  MISS:          2  HIT %:    99.9944  MISS %: 0.00556638   MPKI: 1e-05
LLC CLEAN_EVICTION NON_SPEC    ACCESS:    7490091  HIT:    4375524  MISS:    3114567  HIT %:    58.4175  MISS %:    41.5825   MPKI: 15.5728
LLC COMMIT LOAD NON_SPEC    ACCESS:     143893  HIT:     129376  MISS:      14517  HIT %:    89.9113  MISS %:    10.0887   MPKI: 0.072585
LLC LOAD TRANSLATION NON_SPEC    ACCESS:       4373  HIT:       2438  MISS:       1935  HIT %:    55.7512  MISS %:    44.2488   MPKI: 0.009675
LLC PREFETCH  REQUESTED:          0  ISSUED:          0  USEFUL:     261102  USELESS:    1704467
LLC USEFUL LOAD PREFETCHES:     261102 PREFETCH ISSUED TO LOWER LEVEL:    1971291  ACCURACY: 13.2452
LLC TIMELY PREFETCHES:     261102 LATE PREFETCHES: 8147 DROPPED PREFETCHES: 0
LLC COMMIT LATE PREFETCHES: 0 MISSED OPPORTUNITY: 0 LATE IN PQ: 0 UNCOVERED: 0
LLC COMMIT LATE MSHR PREFETCHES: 0
LLC MPKI TOTAL: 17.0256 MSHR LATE: 0.040735 PQ LATE: 0 COMMIT LATE: 0 MISSED OPPORTUNITY: 0 UNCOVERED: 0
LLC PREFETCHES SAME FILL-ORIGIN LEVEL: 547163 DIFFERENT FILL-ORIGIN LEVEL: 0
LLC AVERAGE MISS LATENCY: 110.903 cycles
LLC AVERAGE MISS LATENCY LOAD: 164.548 cycles
LLC AVERAGE MISS LATENCY PREFETCH: 193.566 cycles
LLC AVERAGE MSHR OCCUPANCY: 1.28065
LLC MSHR FULL: 0
LLC RQ	ACCESS:    9828880	FORWARD:          0	MERGED:          0	TO_CACHE:    9828741
LLC WQ	ACCESS:    7526022	FORWARD:        141	MERGED:          0	TO_CACHE:    7526022
LLC PQ	ACCESS:    2769498	FORWARD:          0	MERGED:       3213	TO_CACHE:    2766283

LLC Dense regions hint to LLC: 0

RAW hits: 26542
Loads Generated: 55062031
Loads sent to L1D: 55035489
Stores Generated: 247506
Stores sent to L1D: 247506
Major fault: 0 Minor fault: 19168
Allocated PAGES: 19168
Total Load insts: 67812885
Total Non-spec loads: 11776361
Percentage of speculative loads: 82.634

LeapFrogging counter: 599524
Commit hits: 24275767 miss: 19323453
Commit hit %: 55.6794 miss %: 44.3206
Commits not translated: 0
Loads retired: 15050672
Stores retired: 247506
Cache fills: 15050674
L1D response latency: 64.717 cycles
Load retirement latency: 150.123 cycles
OOO test counter: 0
Discarded buffer inserts: 24275767 hits: 82435 hit %: 0.339577
Filter prediction accuracy: 99.5549
------------------
Depth Distribution
------------------
depth 0: 15066455
depth 1: 2337606
depth 2: 217325
depth 3: 454230
depth 4: 374199
depth 5: 117383
depth 6: 7418
depth 7: 80
depth 8: 0
depth 9: 0
depth 10: 0
depth 11: 0
depth 12: 0
depth 13: 0
depth 14: 0
depth 15: 0
depth 16: 0
depth 17: 0
depth 18: 0
depth 19: 0
depth 20: 0
depth 21: 0
depth 22: 0
depth 23: 0
depth 24: 0
depth 25: 0
depth 26: 0
depth 27: 0
depth 28: 0
depth 29: 0
Total: 18574696
------------------
ST read accesses: 6983707
ST write accesses: 8066695
PT read accesses: 113079226
PT write accesses: 7005935
FILTER read accesses: 54600661
FILTER write accesses: 35290658
GHR read accesses: 67210529
GHR write accesses: 260920
PERC read accesses: 738949896
PERC write accesses: 31211089
GHR counter read accesses: 30100804
GHR counter write accesses: 18796400
GHR ip read accesses: 77709864
GHR ip write accesses: 60201608
ST tag read accesses: 9917271499
ST tag write accesses: 2304870766

DRAM Statistics
 CHANNEL 0
 RQ ROW_BUFFER_HIT:     699469  ROW_BUFFER_MISS:    4684130
 DBUS_CONGESTED:       1952
 WQ ROW_BUFFER_HIT:    1369814  ROW_BUFFER_MISS:    2325249  FULL:          0

 AVG_CONGESTED_CYCLE: 5
 All warmup complete: 2
Channel 0 Bank busy for read cycles: 0
Channel 0 Bank busy for write cycles: 0
Channel 0
Rank 0
0banks busy for read cycles: 81778580
0banks busy for write cycles: 588918
1banks busy for read cycles: 223702910
1banks busy for write cycles: 98229391
2banks busy for read cycles: 102206905
2banks busy for write cycles: 66700609
3banks busy for read cycles: 48807917
3banks busy for write cycles: 38891940
4banks busy for read cycles: 20931415
4banks busy for write cycles: 23063133
5banks busy for read cycles: 8109780
5banks busy for write cycles: 15021640
6banks busy for read cycles: 3241608
6banks busy for write cycles: 11170492
7banks busy for read cycles: 1717775
7banks busy for write cycles: 11915856
8banks busy for read cycles: 1157013
8banks busy for write cycles: 19696596

CPU 0 Branch Prediction Accuracy: 92.3859% MPKI: 15.4313 Average ROB Occupancy at Mispredict: 34.0496
Branch types
NOT_BRANCH: 159466168 79.7331%
BRANCH_DIRECT_JUMP: 0 0%
BRANCH_INDIRECT: 0 0%
BRANCH_CONDITIONAL: 40533593 20.2668%
BRANCH_DIRECT_CALL: 0 0%
BRANCH_INDIRECT_CALL: 0 0%
BRANCH_RETURN: 0 0%
BRANCH_OTHER: 0 0%

DRAM PAGES: 1048576
Allocated PAGES: 19168
