Initialize SIGNATURE TABLE
ST_SET: 1
ST_WAY: 256
ST_TAG_BIT: 16
ST_TAG_MASK: ffff

Initialize PATTERN TABLE
PT_SET: 512
PT_WAY: 4
SIG_DELTA_BIT: 7
C_SIG_BIT: 4
C_DELTA_BIT: 4

Initialize PREFETCH FILTER
FILTER_SET: 1024

Initialize PERCEPTRON
PERC_ENTRIES: 4096
PERC_FEATURES: 9

*** ChampSim Multicore Out-of-Order Simulator ***

Warmup Instructions: 50000000
Simulation Instructions: 200000000
Number of CPUs: 1
LLC sets: 2048
LLC ways: 16
L0D sets: 16
L0D ways: 2
ROB size: 352
LQ size: 128
SQ size: 72
Secure Berti: OFF
Berti: OFF
Berti Fill: OFF
On commit prefetching: OFF
Hit-based filter: ON
Time-guarding: ON
Free-slotting: ON
Leap-frogging: ON
Train prefetcher on L0D bypass: OFF
No translation penalty for prefetchers: OFF
Prefetch to L0D only: OFF
Prefetch to L1D only: OFF
Clean evictions: ON
Commit loads: ON
Commit write: ON
Fill commit loads to L2C, LLC: ON
DRAM IO FREQUENCY: 6400
ROB SIZE: 352
Off-chip DRAM Size: 4096 MB Channels: 1 Width: 64-bit Data Rate: 6400 MT/s
CPU 0 runs /home/sumon/secure_berti/GhostMinion/../../traces/gap/pr-14.trace.gz
.gz
BTB has LRU replacement policy
ITLB has LRU replacement policy
DTLB has LRU replacement policy
STLB has LRU replacement policy
L1I has LRU replacement policy
L0D has LRU replacement policy
L1D has LRU replacement policy
PERC_ENTRIES: 4096
L2C has LRU replacement policy
LLC has LRU replacement policy
Heartbeat CPU 0 instructions: 10000001 cycles: 3333820 heartbeat IPC: 2.99956 cumulative IPC: 2.99956 (Simulation time: 0 hr 0 min 18 sec) 
Heartbeat CPU 0 instructions: 20000001 cycles: 17841892 heartbeat IPC: 0.689271 cumulative IPC: 1.12096 (Simulation time: 0 hr 1 min 4 sec) 
Heartbeat CPU 0 instructions: 30000003 cycles: 34378584 heartbeat IPC: 0.604716 cumulative IPC: 0.872636 (Simulation time: 0 hr 1 min 59 sec) 
Heartbeat CPU 0 instructions: 40000003 cycles: 50900817 heartbeat IPC: 0.605245 cumulative IPC: 0.785842 (Simulation time: 0 hr 2 min 54 sec) 
Heartbeat CPU 0 instructions: 50000000 cycles: 67407315 heartbeat IPC: 0.605822 cumulative IPC: 0.741759 (Simulation time: 0 hr 3 min 47 sec) 

Warmup complete CPU 0 instructions: 50000004 cycles: 67407322 (Simulation time: 0 hr 3 min 47 sec) 

Heartbeat CPU 0 instructions: 60000000 cycles: 248395212 heartbeat IPC: 0.0552523 cumulative IPC: 0.0552523 (Simulation time: 0 hr 5 min 52 sec) 
Heartbeat CPU 0 instructions: 70000000 cycles: 429265405 heartbeat IPC: 0.0552883 cumulative IPC: 0.0552703 (Simulation time: 0 hr 7 min 56 sec) 
Heartbeat CPU 0 instructions: 80000001 cycles: 610486121 heartbeat IPC: 0.0551813 cumulative IPC: 0.0552406 (Simulation time: 0 hr 10 min 2 sec) 
Heartbeat CPU 0 instructions: 90000000 cycles: 792256265 heartbeat IPC: 0.0550145 cumulative IPC: 0.0551839 (Simulation time: 0 hr 12 min 44 sec) 
Heartbeat CPU 0 instructions: 100000001 cycles: 972960903 heartbeat IPC: 0.0553389 cumulative IPC: 0.0552148 (Simulation time: 0 hr 15 min 48 sec) 
Heartbeat CPU 0 instructions: 110000000 cycles: 1154192829 heartbeat IPC: 0.0551779 cumulative IPC: 0.0552087 (Simulation time: 0 hr 19 min 2 sec) 
Heartbeat CPU 0 instructions: 120000001 cycles: 1335438836 heartbeat IPC: 0.0551736 cumulative IPC: 0.0552037 (Simulation time: 0 hr 21 min 12 sec) 
Heartbeat CPU 0 instructions: 130000000 cycles: 1514522275 heartbeat IPC: 0.0558399 cumulative IPC: 0.0552824 (Simulation time: 0 hr 23 min 18 sec) 
Heartbeat CPU 0 instructions: 140000002 cycles: 1695560221 heartbeat IPC: 0.0552371 cumulative IPC: 0.0552774 (Simulation time: 0 hr 25 min 23 sec) 
Heartbeat CPU 0 instructions: 150000001 cycles: 1876625084 heartbeat IPC: 0.0552288 cumulative IPC: 0.0552725 (Simulation time: 0 hr 27 min 25 sec) 
Heartbeat CPU 0 instructions: 160000001 cycles: 2057707527 heartbeat IPC: 0.0552235 cumulative IPC: 0.055268 (Simulation time: 0 hr 29 min 24 sec) 
Heartbeat CPU 0 instructions: 170000003 cycles: 2238134221 heartbeat IPC: 0.0554242 cumulative IPC: 0.055281 (Simulation time: 0 hr 31 min 21 sec) 
Heartbeat CPU 0 instructions: 180000001 cycles: 2419259898 heartbeat IPC: 0.0552103 cumulative IPC: 0.0552756 (Simulation time: 0 hr 33 min 19 sec) 
Heartbeat CPU 0 instructions: 190000000 cycles: 2549842269 heartbeat IPC: 0.07658 cumulative IPC: 0.0563962 (Simulation time: 0 hr 34 min 50 sec) 
Heartbeat CPU 0 instructions: 200000002 cycles: 2590674491 heartbeat IPC: 0.244905 cumulative IPC: 0.0594467 (Simulation time: 0 hr 35 min 34 sec) 
Heartbeat CPU 0 instructions: 210000001 cycles: 2772221522 heartbeat IPC: 0.0550821 cumulative IPC: 0.0591538 (Simulation time: 0 hr 37 min 30 sec) 
Heartbeat CPU 0 instructions: 220000000 cycles: 2954204061 heartbeat IPC: 0.0549503 cumulative IPC: 0.0588888 (Simulation time: 0 hr 39 min 27 sec) 
Heartbeat CPU 0 instructions: 230000000 cycles: 3136068999 heartbeat IPC: 0.0549859 cumulative IPC: 0.0586575 (Simulation time: 0 hr 41 min 23 sec) 
Heartbeat CPU 0 instructions: 240000002 cycles: 3316962173 heartbeat IPC: 0.0552813 cumulative IPC: 0.0584695 (Simulation time: 0 hr 43 min 19 sec) 
Heartbeat CPU 0 instructions: 250000003 cycles: 3497830549 heartbeat IPC: 0.0552888 cumulative IPC: 0.0583018 (Simulation time: 0 hr 45 min 13 sec) 
Finished CPU 0 instructions: 200000000 cycles: 3430423228 cumulative IPC: 0.0583018 (Simulation time: 0 hr 45 min 13 sec) 
 Instruction ID: 250000385

ChampSim completed all CPUs

Region of Interest Statistics

CPU 0 cumulative IPC: 0.0583018 instructions: 200000000 cycles: 3430423228
ITLB SPEC fills:          0  NON-SPEC fills:          0
ITLB Test counter :          0
ITLB Leapfrog:          0
ITLB MSHR merge:          0
ITLB TOTAL     ACCESS:   58827430  HIT:   58827430  MISS:          0  HIT %:        100  MISS %:          0   MPKI: 0
ITLB LOAD TRANSLATION NON_SPEC    ACCESS:   58827430  HIT:   58827430  MISS:          0  HIT %:        100  MISS %:          0   MPKI: 0
ITLB PREFETCH  REQUESTED:          0  ISSUED:          0  USEFUL:          0  USELESS:          0
ITLB USEFUL LOAD PREFETCHES:          0 PREFETCH ISSUED TO LOWER LEVEL:          0  ACCURACY: -nan
ITLB TIMELY PREFETCHES:          0 LATE PREFETCHES: 0 DROPPED PREFETCHES: 0
ITLB COMMIT LATE PREFETCHES: 0 MISSED OPPORTUNITY: 0 LATE IN PQ: 0 UNCOVERED: 0
ITLB COMMIT LATE MSHR PREFETCHES: 0
ITLB MPKI TOTAL: 0 MSHR LATE: 0 PQ LATE: 0 COMMIT LATE: 0 MISSED OPPORTUNITY: 0 UNCOVERED: 0
ITLB PREFETCHES SAME FILL-ORIGIN LEVEL: 0 DIFFERENT FILL-ORIGIN LEVEL: 0
ITLB AVERAGE MISS LATENCY: -nan cycles
ITLB AVERAGE MISS LATENCY LOAD: -nan cycles
ITLB AVERAGE MISS LATENCY PREFETCH: -nan cycles
ITLB AVERAGE MSHR OCCUPANCY: 0
ITLB MSHR FULL: 0
ITLB RQ	ACCESS:   59955438	FORWARD:          0	MERGED:    1128007	TO_CACHE:   58827431

DTLB SPEC fills:          0  NON-SPEC fills:          0
DTLB Test counter :          0
DTLB Leapfrog:          0
DTLB MSHR merge:          0
DTLB TOTAL     ACCESS:   71390253  HIT:   48392841  MISS:   22997412  HIT %:    67.7863  MISS %:    32.2137   MPKI: 114.987
DTLB LOAD TRANSLATION NON_SPEC    ACCESS:   71390253  HIT:   48392841  MISS:   22997412  HIT %:    67.7863  MISS %:    32.2137   MPKI: 114.987
DTLB PREFETCH  REQUESTED:          0  ISSUED:          0  USEFUL:          0  USELESS:          0
DTLB USEFUL LOAD PREFETCHES:          0 PREFETCH ISSUED TO LOWER LEVEL:          0  ACCURACY: -nan
DTLB TIMELY PREFETCHES:          0 LATE PREFETCHES: 0 DROPPED PREFETCHES: 0
DTLB COMMIT LATE PREFETCHES: 0 MISSED OPPORTUNITY: 0 LATE IN PQ: 0 UNCOVERED: 0
DTLB COMMIT LATE MSHR PREFETCHES: 0
DTLB MPKI TOTAL: 0 MSHR LATE: 0 PQ LATE: 0 COMMIT LATE: 0 MISSED OPPORTUNITY: 0 UNCOVERED: 0
DTLB PREFETCHES SAME FILL-ORIGIN LEVEL: 0 DIFFERENT FILL-ORIGIN LEVEL: 0
DTLB AVERAGE MISS LATENCY: 9.29389 cycles
DTLB AVERAGE MISS LATENCY LOAD: -nan cycles
DTLB AVERAGE MISS LATENCY PREFETCH: -nan cycles
DTLB AVERAGE MSHR OCCUPANCY: 0.196149
DTLB MSHR FULL: 0
DTLB RQ	ACCESS:   72272018	FORWARD:          0	MERGED:     872348	TO_CACHE:   71399670

STLB SPEC fills:          0  NON-SPEC fills:          0
STLB Test counter :          0
STLB Leapfrog:          0
STLB MSHR merge:          0
STLB TOTAL     ACCESS:   22997411  HIT:   22956594  MISS:      40817  HIT %:    99.8225  MISS %:   0.177485   MPKI: 0.204085
STLB LOAD TRANSLATION NON_SPEC    ACCESS:   22997411  HIT:   22956594  MISS:      40817  HIT %:    99.8225  MISS %:   0.177485   MPKI: 0.204085
STLB PREFETCH  REQUESTED:          0  ISSUED:          0  USEFUL:          0  USELESS:          0
STLB USEFUL LOAD PREFETCHES:          0 PREFETCH ISSUED TO LOWER LEVEL:          0  ACCURACY: -nan
STLB TIMELY PREFETCHES:          0 LATE PREFETCHES: 0 DROPPED PREFETCHES: 0
STLB COMMIT LATE PREFETCHES: 0 MISSED OPPORTUNITY: 0 LATE IN PQ: 0 UNCOVERED: 0
STLB COMMIT LATE MSHR PREFETCHES: 0
STLB MPKI TOTAL: 0 MSHR LATE: 0 PQ LATE: 0 COMMIT LATE: 0 MISSED OPPORTUNITY: 0 UNCOVERED: 0
STLB PREFETCHES SAME FILL-ORIGIN LEVEL: 0 DIFFERENT FILL-ORIGIN LEVEL: 0
STLB AVERAGE MISS LATENCY: 156.691 cycles
STLB AVERAGE MISS LATENCY LOAD: -nan cycles
STLB AVERAGE MISS LATENCY PREFETCH: -nan cycles
STLB AVERAGE MSHR OCCUPANCY: 0.00115878
STLB MSHR FULL: 0
STLB RQ	ACCESS:   22997411	FORWARD:          0	MERGED:          0	TO_CACHE:   22997411

STLB Hit, L1D data hit: 0
STLB Hit, L2C data hit: 0
STLB Hit, LLC data hit: 0
STLB Hit, LLC data miss: 0
STLB STLB hints to L2: 0
L0D SPEC fills:    5665289  NON-SPEC fills:          0
L0D TimeGuard Request with older TS:      69575 Restricted eviction:      11376 read:      25626
L0D Test counter :          0
L0D Leapfrog:          0
L0D MSHR merge:    3030846
L0D TOTAL     ACCESS:   65935356  HIT:   22687336  MISS:   43248020  HIT %:    34.4085  MISS %:    65.5915   MPKI: 216.24
L0D LOAD      TOTAL       ACCESS:   65935356  HIT:   22687336  MISS:   43248020  HIT %:    34.4085  MISS %:    65.5915   MPKI: 216.24
L0D LOAD      NON_SPEC    ACCESS:   37585692  HIT:      14337  MISS:   37571355  HIT %:  0.0381448  MISS %:    99.9619   MPKI: 187.857
L0D LOAD      SPEC        ACCESS:   28349664  HIT:   22672999  MISS:    5676665  HIT %:    79.9763  MISS %:    20.0237   MPKI: 28.3833
L0D PREFETCH  REQUESTED:          0  ISSUED:          0  USEFUL:          0  USELESS:          0
L0D USEFUL LOAD PREFETCHES:          0 PREFETCH ISSUED TO LOWER LEVEL:          0  ACCURACY: -nan
L0D TIMELY PREFETCHES:          0 LATE PREFETCHES: 0 DROPPED PREFETCHES: 0
L0D COMMIT LATE PREFETCHES: 0 MISSED OPPORTUNITY: 0 LATE IN PQ: 0 UNCOVERED: 0
L0D COMMIT LATE MSHR PREFETCHES: 0
L0D MPKI TOTAL: 231.394 MSHR LATE: 0 PQ LATE: 0 COMMIT LATE: 0 MISSED OPPORTUNITY: 0 UNCOVERED: 0
L0D PREFETCHES SAME FILL-ORIGIN LEVEL: 0 DIFFERENT FILL-ORIGIN LEVEL: 0
L0D AVERAGE MISS LATENCY: 67.9726 cycles
L0D AVERAGE MISS LATENCY LOAD: 67.9726 cycles
L0D AVERAGE MISS LATENCY PREFETCH: -nan cycles
L0D AVERAGE MSHR OCCUPANCY: 0.262613
L0D MSHR FULL: 0
L0D RQ	ACCESS:   77350917	FORWARD:          0	MERGED:    8384716	TO_CACHE:   68966201
L0D WQ	ACCESS:    3305817	FORWARD:          0	MERGED:          0	TO_CACHE:    3305817

L1D SPEC fills:          0  NON-SPEC fills:   31938967
L1D Test counter :          0
L1D Leapfrog:          0
L1D MSHR merge:         63
L1D TOTAL     ACCESS:   55965451  HIT:   18857343  MISS:   37108108  HIT %:    33.6946  MISS %:    66.3054   MPKI: 185.541
L1D LOAD      TOTAL       ACCESS:   43247957  HIT:    8731798  MISS:   34516159  HIT %:    20.1901  MISS %:    79.8099   MPKI: 172.581
L1D LOAD      NON_SPEC    ACCESS:   37571354  HIT:    5632387  MISS:   31938967  HIT %:    14.9912  MISS %:    85.0088   MPKI: 159.695
L1D LOAD      SPEC        ACCESS:    5676603  HIT:    3099411  MISS:    2577192  HIT %:    54.5997  MISS %:    45.4003   MPKI: 12.886
L1D RFO       NON_SPEC    ACCESS:    2539543  HIT:    2473766  MISS:      65777  HIT %:    97.4099  MISS %:    2.59011   MPKI: 0.328885
L1D COMMIT LOAD NON_SPEC    ACCESS:    7474820  HIT:    7474181  MISS:        639  HIT %:    99.9915  MISS %:  0.0085487   MPKI: 0.003195
L1D COMMIT WRITE NON_SPEC    ACCESS:    2703131  HIT:     177598  MISS:    2525533  HIT %:    6.57008  MISS %:    93.4299   MPKI: 12.6277
L1D PREFETCH  REQUESTED:          0  ISSUED:          0  USEFUL:          0  USELESS:          0
L1D USEFUL LOAD PREFETCHES:          0 PREFETCH ISSUED TO LOWER LEVEL:          0  ACCURACY: -nan
L1D TIMELY PREFETCHES:          0 LATE PREFETCHES: 0 DROPPED PREFETCHES: 0
L1D COMMIT LATE PREFETCHES: 0 MISSED OPPORTUNITY: 0 LATE IN PQ: 0 UNCOVERED: 0
L1D COMMIT LATE MSHR PREFETCHES: 0
L1D MPKI TOTAL: 172.581 MSHR LATE: 0 PQ LATE: 0 COMMIT LATE: 0 MISSED OPPORTUNITY: 0 UNCOVERED: 0
L1D PREFETCHES SAME FILL-ORIGIN LEVEL: 0 DIFFERENT FILL-ORIGIN LEVEL: 0
L1D AVERAGE MISS LATENCY: 73.7644 cycles
L1D AVERAGE MISS LATENCY LOAD: 78.8946 cycles
L1D AVERAGE MISS LATENCY PREFETCH: -nan cycles
L1D AVERAGE MSHR OCCUPANCY: 0.0926221
L1D MSHR FULL: 0
L1D RQ	ACCESS:   50755849	FORWARD:          0	MERGED:      31596	TO_CACHE:   50722853
L1D WQ	ACCESS:    6010568	FORWARD:       1400	MERGED:       4718	TO_CACHE:    6005850

L1D UNIQUE REGIONS ACCESSED: 0
L1D REGIONS CONFLICTS: 0
L1D Cross Page Prefetch Requests: 0
L1D Same Page Prefetch Requests: 0
L1D ROI Sum of L1D PQ occupancy: 0
L1D PREFETCHES PUSHED FROM L2C: 0
L1I SPEC fills:          0  NON-SPEC fills:          0
L1I Test counter :          0
L1I Leapfrog:          0
L1I MSHR merge:          1
L1I TOTAL     ACCESS:   59955436  HIT:   59955415  MISS:         21  HIT %:        100  MISS %: 3.5026e-05   MPKI: 0.000105
L1I LOAD      TOTAL       ACCESS:   59955436  HIT:   59955415  MISS:         21  HIT %:        100  MISS %: 3.5026e-05   MPKI: 0.000105
L1I LOAD      NON_SPEC    ACCESS:   59955436  HIT:   59955415  MISS:         21  HIT %:        100  MISS %: 3.5026e-05   MPKI: 0.000105
L1I PREFETCH  REQUESTED:          0  ISSUED:          0  USEFUL:          0  USELESS:          0
L1I USEFUL LOAD PREFETCHES:          0 PREFETCH ISSUED TO LOWER LEVEL:          0  ACCURACY: -nan
L1I TIMELY PREFETCHES:          0 LATE PREFETCHES: 0 DROPPED PREFETCHES: 0
L1I COMMIT LATE PREFETCHES: 0 MISSED OPPORTUNITY: 0 LATE IN PQ: 0 UNCOVERED: 0
L1I COMMIT LATE MSHR PREFETCHES: 0
L1I MPKI TOTAL: 0.00011 MSHR LATE: 0 PQ LATE: 0 COMMIT LATE: 0 MISSED OPPORTUNITY: 0 UNCOVERED: 0
L1I PREFETCHES SAME FILL-ORIGIN LEVEL: 0 DIFFERENT FILL-ORIGIN LEVEL: 0
L1I AVERAGE MISS LATENCY: 166.381 cycles
L1I AVERAGE MISS LATENCY LOAD: 166.381 cycles
L1I AVERAGE MISS LATENCY PREFETCH: -nan cycles
L1I AVERAGE MSHR OCCUPANCY: 1.33432e-07
L1I MSHR FULL: 0
L1I RQ	ACCESS:   71083635	FORWARD:          0	MERGED:   11128197	TO_CACHE:   59955438

BTB SPEC fills:          0  NON-SPEC fills:          0
BTB Test counter :          0
BTB Leapfrog:          0
BTB MSHR merge:          0
BTB TOTAL     ACCESS:   37022761  HIT:   37022589  MISS:        172  HIT %:    99.9995  MISS %: 0.000464579   MPKI: 0.00086
BTB BRANCH_DIRECT_JUMP	ACCESS:         66  HIT:         33  MISS:         33
BTB BRANCH_INDIRECT	ACCESS:          4  HIT:          0  MISS:          4
BTB BRANCH_CONDITIONAL	ACCESS:   37022625  HIT:   37022536  MISS:         89
BTB BRANCH_DIRECT_CALL	ACCESS:         28  HIT:         10  MISS:         18
BTB BRANCH_INDIRECT_CALL	ACCESS:          5  HIT:          1  MISS:          4
BTB BRANCH_RETURN	ACCESS:         33  HIT:          9  MISS:         24
BTB BRANCH_OTHER ACCESS:          0  HIT:          0  MISS:          0

L2C SPEC fills:          0  NON-SPEC fills:   22477820
L2C Test counter :          0
L2C Leapfrog:          0
L2C MSHR merge:     171164
L2C TOTAL     ACCESS:   40521729  HIT:   13094027  MISS:   27427702  HIT %:    32.3136  MISS %:    67.6864   MPKI: 137.139
L2C LOAD      TOTAL       ACCESS:   34516180  HIT:   11934760  MISS:   22581420  HIT %:    34.5773  MISS %:    65.4227   MPKI: 112.907
L2C LOAD      NON_SPEC    ACCESS:   31938988  HIT:    9461147  MISS:   22477841  HIT %:    29.6226  MISS %:    70.3774   MPKI: 112.389
L2C LOAD      SPEC        ACCESS:    2577192  HIT:    2473613  MISS:     103579  HIT %:    95.9809  MISS %:    4.01906   MPKI: 0.517895
L2C RFO       NON_SPEC    ACCESS:      65777  HIT:        308  MISS:      65469  HIT %:   0.468249  MISS %:    99.5318   MPKI: 0.327345
L2C PREFETCH  NON_SPEC    ACCESS:    5355329  HIT:     690734  MISS:    4664595  HIT %:    12.8981  MISS %:    87.1019   MPKI: 23.323
L2C WRITEBACK NON_SPEC    ACCESS:      74153  HIT:      73238  MISS:        915  HIT %:    98.7661  MISS %:    1.23394   MPKI: 0.004575
L2C CLEAN_EVICTION NON_SPEC    ACCESS:     305613  HIT:     203178  MISS:     102435  HIT %:    66.4821  MISS %:    33.5179   MPKI: 0.512175
L2C COMMIT LOAD NON_SPEC    ACCESS:        639  HIT:        622  MISS:         17  HIT %:    97.3396  MISS %:    2.66041   MPKI: 8.5e-05
L2C LOAD TRANSLATION NON_SPEC    ACCESS:     204038  HIT:     191187  MISS:      12851  HIT %:    93.7017  MISS %:    6.29834   MPKI: 0.064255
L2C PREFETCH  REQUESTED:    8730905  ISSUED:    8730905  USEFUL:    2763976  USELESS:    1900785
L2C USEFUL LOAD PREFETCHES:    2763976 PREFETCH ISSUED TO LOWER LEVEL:    8031929  ACCURACY: 34.4124
L2C TIMELY PREFETCHES:    2763976 LATE PREFETCHES: 171164 DROPPED PREFETCHES: 0
L2C COMMIT LATE PREFETCHES: 0 MISSED OPPORTUNITY: 0 LATE IN PQ: 0 UNCOVERED: 0
L2C COMMIT LATE MSHR PREFETCHES: 0
L2C MPKI TOTAL: 112.907 MSHR LATE: 0.85582 PQ LATE: 0 COMMIT LATE: 0 MISSED OPPORTUNITY: 0 UNCOVERED: 0
L2C PREFETCHES SAME FILL-ORIGIN LEVEL: 4835759 DIFFERENT FILL-ORIGIN LEVEL: 3196170
L2C AVERAGE MISS LATENCY: 108.073 cycles
L2C AVERAGE MISS LATENCY LOAD: 98.1827 cycles
L2C AVERAGE MISS LATENCY PREFETCH: 157.012 cycles
L2C AVERAGE MSHR OCCUPANCY: 0.248475
L2C MSHR FULL: 0
L2C RQ	ACCESS:   34786634	FORWARD:          0	MERGED:          0	TO_CACHE:   34786634
L2C WQ	ACCESS:     379766	FORWARD:          0	MERGED:          0	TO_CACHE:     379766
L2C PQ	ACCESS:    8730905	FORWARD:          0	MERGED:       2409	TO_CACHE:    8728496

L2C Instructions Evicting Data 21
L2C Translations Evicting Data 12851
L2C Data Evicting Data 27195084
L2C Instructions Evicting Instructions 0
L2C Translations Evicting Instructions 0
L2C Data Evicting Instructions 21
L2C Instructions Evicting Translations 0
L2C Translations Evicting Translations 0
L2C Data Evicting Translations 12796
L2C Dense regions hint from L2: 0
PSCL5 SPEC fills:          0  NON-SPEC fills:          0
PSCL5 Test counter :          0
PSCL5 Leapfrog:          0
PSCL5 MSHR merge:          0
PSCL5 TOTAL     ACCESS:          0  HIT:          0  MISS:          0  HIT %:       -nan  MISS %:       -nan   MPKI: 0
PSCL5 PREFETCH  REQUESTED:          0  ISSUED:          0  USEFUL:          0  USELESS:          0
PSCL5 USEFUL LOAD PREFETCHES:          0 PREFETCH ISSUED TO LOWER LEVEL:          0  ACCURACY: -nan
PSCL5 TIMELY PREFETCHES:          0 LATE PREFETCHES: 0 DROPPED PREFETCHES: 0
PSCL5 COMMIT LATE PREFETCHES: 0 MISSED OPPORTUNITY: 0 LATE IN PQ: 0 UNCOVERED: 0
PSCL5 COMMIT LATE MSHR PREFETCHES: 0
PSCL5 MPKI TOTAL: 0 MSHR LATE: 0 PQ LATE: 0 COMMIT LATE: 0 MISSED OPPORTUNITY: 0 UNCOVERED: 0
PSCL5 PREFETCHES SAME FILL-ORIGIN LEVEL: 0 DIFFERENT FILL-ORIGIN LEVEL: 0

PSCL4 SPEC fills:          0  NON-SPEC fills:          0
PSCL4 Test counter :          0
PSCL4 Leapfrog:          0
PSCL4 MSHR merge:          0
PSCL4 TOTAL     ACCESS:          0  HIT:          0  MISS:          0  HIT %:       -nan  MISS %:       -nan   MPKI: 0
PSCL4 PREFETCH  REQUESTED:          0  ISSUED:          0  USEFUL:          0  USELESS:          0
PSCL4 USEFUL LOAD PREFETCHES:          0 PREFETCH ISSUED TO LOWER LEVEL:          0  ACCURACY: -nan
PSCL4 TIMELY PREFETCHES:          0 LATE PREFETCHES: 0 DROPPED PREFETCHES: 0
PSCL4 COMMIT LATE PREFETCHES: 0 MISSED OPPORTUNITY: 0 LATE IN PQ: 0 UNCOVERED: 0
PSCL4 COMMIT LATE MSHR PREFETCHES: 0
PSCL4 MPKI TOTAL: 0 MSHR LATE: 0 PQ LATE: 0 COMMIT LATE: 0 MISSED OPPORTUNITY: 0 UNCOVERED: 0
PSCL4 PREFETCHES SAME FILL-ORIGIN LEVEL: 0 DIFFERENT FILL-ORIGIN LEVEL: 0

PSCL3 SPEC fills:          0  NON-SPEC fills:          0
PSCL3 Test counter :          0
PSCL3 Leapfrog:          0
PSCL3 MSHR merge:          0
PSCL3 TOTAL     ACCESS:          0  HIT:          0  MISS:          0  HIT %:       -nan  MISS %:       -nan   MPKI: 0
PSCL3 PREFETCH  REQUESTED:          0  ISSUED:          0  USEFUL:          0  USELESS:          0
PSCL3 USEFUL LOAD PREFETCHES:          0 PREFETCH ISSUED TO LOWER LEVEL:          0  ACCURACY: -nan
PSCL3 TIMELY PREFETCHES:          0 LATE PREFETCHES: 0 DROPPED PREFETCHES: 0
PSCL3 COMMIT LATE PREFETCHES: 0 MISSED OPPORTUNITY: 0 LATE IN PQ: 0 UNCOVERED: 0
PSCL3 COMMIT LATE MSHR PREFETCHES: 0
PSCL3 MPKI TOTAL: 0 MSHR LATE: 0 PQ LATE: 0 COMMIT LATE: 0 MISSED OPPORTUNITY: 0 UNCOVERED: 0
PSCL3 PREFETCHES SAME FILL-ORIGIN LEVEL: 0 DIFFERENT FILL-ORIGIN LEVEL: 0

PSCL2 SPEC fills:          0  NON-SPEC fills:          0
PSCL2 Test counter :          0
PSCL2 Leapfrog:          0
PSCL2 MSHR merge:          0
PSCL2 TOTAL     ACCESS:          0  HIT:          0  MISS:          0  HIT %:       -nan  MISS %:       -nan   MPKI: 0
PSCL2 PREFETCH  REQUESTED:          0  ISSUED:          0  USEFUL:          0  USELESS:          0
PSCL2 USEFUL LOAD PREFETCHES:          0 PREFETCH ISSUED TO LOWER LEVEL:          0  ACCURACY: -nan
PSCL2 TIMELY PREFETCHES:          0 LATE PREFETCHES: 0 DROPPED PREFETCHES: 0
PSCL2 COMMIT LATE PREFETCHES: 0 MISSED OPPORTUNITY: 0 LATE IN PQ: 0 UNCOVERED: 0
PSCL2 COMMIT LATE MSHR PREFETCHES: 0
PSCL2 MPKI TOTAL: 0 MSHR LATE: 0 PQ LATE: 0 COMMIT LATE: 0 MISSED OPPORTUNITY: 0 UNCOVERED: 0
PSCL2 PREFETCHES SAME FILL-ORIGIN LEVEL: 0 DIFFERENT FILL-ORIGIN LEVEL: 0

LLC SPEC fills:          0  NON-SPEC fills:    9655506
LLC Test counter :          0
LLC Leapfrog:          0
LLC MSHR merge:      35398
LLC TOTAL     ACCESS:   30831855  HIT:   15157577  MISS:   15674278  HIT %:    49.1621  MISS %:    50.8379   MPKI: 78.3714
LLC LOAD      TOTAL       ACCESS:   22410256  HIT:   12690300  MISS:    9719956  HIT %:    56.6272  MISS %:    43.3728   MPKI: 48.5998
LLC LOAD      NON_SPEC    ACCESS:   22341823  HIT:   12686296  MISS:    9655527  HIT %:    56.7827  MISS %:    43.2173   MPKI: 48.2776
LLC LOAD      SPEC        ACCESS:      68433  HIT:       4004  MISS:      64429  HIT %:    5.85098  MISS %:     94.149   MPKI: 0.322145
LLC RFO       NON_SPEC    ACCESS:      65469  HIT:       1435  MISS:      64034  HIT %:    2.19188  MISS %:    97.8081   MPKI: 0.32017
LLC PREFETCH  NON_SPEC    ACCESS:    7976716  HIT:    2158221  MISS:    5818495  HIT %:    27.0565  MISS %:    72.9435   MPKI: 29.0925
LLC WRITEBACK NON_SPEC    ACCESS:      67350  HIT:      66825  MISS:        525  HIT %:    99.2205  MISS %:    0.77951   MPKI: 0.002625
LLC CLEAN_EVICTION NON_SPEC    ACCESS:     299196  HIT:     234641  MISS:      64555  HIT %:    78.4238  MISS %:    21.5762   MPKI: 0.322775
LLC COMMIT LOAD NON_SPEC    ACCESS:         17  HIT:          8  MISS:          9  HIT %:    47.0588  MISS %:    52.9412   MPKI: 4.5e-05
LLC LOAD TRANSLATION NON_SPEC    ACCESS:      12851  HIT:       6147  MISS:       6704  HIT %:    47.8329  MISS %:    52.1671   MPKI: 0.03352
LLC PREFETCH  REQUESTED:          0  ISSUED:          0  USEFUL:     790942  USELESS:    5029006
LLC USEFUL LOAD PREFETCHES:     790942 PREFETCH ISSUED TO LOWER LEVEL:    5853893  ACCURACY: 13.5114
LLC TIMELY PREFETCHES:     790942 LATE PREFETCHES: 35398 DROPPED PREFETCHES: 0
LLC COMMIT LATE PREFETCHES: 0 MISSED OPPORTUNITY: 0 LATE IN PQ: 0 UNCOVERED: 0
LLC COMMIT LATE MSHR PREFETCHES: 0
LLC MPKI TOTAL: 48.5998 MSHR LATE: 0.17699 PQ LATE: 0 COMMIT LATE: 0 MISSED OPPORTUNITY: 0 UNCOVERED: 0
LLC PREFETCHES SAME FILL-ORIGIN LEVEL: 1864415 DIFFERENT FILL-ORIGIN LEVEL: 0
LLC AVERAGE MISS LATENCY: 154.601 cycles
LLC AVERAGE MISS LATENCY LOAD: 157.293 cycles
LLC AVERAGE MISS LATENCY PREFETCH: 151.592 cycles
LLC AVERAGE MSHR OCCUPANCY: 0.23395
LLC MSHR FULL: 0
LLC RQ	ACCESS:   22488593	FORWARD:          0	MERGED:          0	TO_CACHE:   22488593
LLC WQ	ACCESS:     366546	FORWARD:          0	MERGED:          0	TO_CACHE:     366546
LLC PQ	ACCESS:    8031929	FORWARD:          0	MERGED:          4	TO_CACHE:    8031925

LLC Dense regions hint to LLC: 0

RAW hits: 24
Loads Generated: 77350942
Loads sent to L1D: 77350917
Stores Generated: 3305817
Stores sent to L1D: 3305817
Major fault: 0 Minor fault: 34901
Allocated PAGES: 34901
Total Load insts: 95645185
Total Non-spec loads: 44880223
Percentage of speculative loads: 53.0763

LeapFrogging counter: 0
Commit hits: 5665026 miss: 34067374
Commit hit %: 14.258 miss %: 85.742
Commits not translated: 0
Loads retired: 34516156
Stores retired: 3305817
Cache fills: 34516159
L1D response latency: 78.8946 cycles
Load retirement latency: 220.078 cycles
OOO test counter: 0
Discarded buffer inserts: 5665026 hits: 59370 hit %: 1.04801
Filter prediction accuracy: 99.9449
------------------
Depth Distribution
------------------
depth 0: 32728878
depth 1: 5741942
depth 2: 636551
depth 3: 1059548
depth 4: 838760
depth 5: 296396
depth 6: 28525
depth 7: 28023
depth 8: 6368
depth 9: 13245
depth 10: 12935
depth 11: 160660
depth 12: 128871
depth 13: 30476
depth 14: 45920
depth 15: 369
depth 16: 69
depth 17: 6
depth 18: 0
depth 19: 0
depth 20: 0
depth 21: 0
depth 22: 0
depth 23: 0
depth 24: 0
depth 25: 0
depth 26: 0
depth 27: 0
depth 28: 0
depth 29: 0
Total: 41757542
------------------
ST read accesses: 15802300
ST write accesses: 18713859
PT read accesses: 272066842
PT write accesses: 15798781
FILTER read accesses: 137364162
FILTER write accesses: 91723414
GHR read accesses: 158187579
GHR write accesses: 978082
PERC read accesses: 1822593861
PERC write accesses: 79845434
GHR counter read accesses: 69032318
GHR counter write accesses: 44182892
GHR ip read accesses: 202520343
GHR ip write accesses: 138064636
ST tag read accesses: 22854105334
ST tag write accesses: 5345779973

DRAM Statistics
 CHANNEL 0
 RQ ROW_BUFFER_HIT:    2869587  ROW_BUFFER_MISS:   12739609
 DBUS_CONGESTED:       7313
 WQ ROW_BUFFER_HIT:     130488  ROW_BUFFER_MISS:     235772  FULL:          0

 AVG_CONGESTED_CYCLE: 2
 All warmup complete: 2
Channel 0 Bank busy for read cycles: 0
Channel 0 Bank busy for write cycles: 0
Channel 0
Rank 0
0banks busy for read cycles: 1728214758
0banks busy for write cycles: 203396
1banks busy for read cycles: 1337338173
1banks busy for write cycles: 47541710
2banks busy for read cycles: 230865790
2banks busy for write cycles: 3488698
3banks busy for read cycles: 58728778
3banks busy for write cycles: 1045424
4banks busy for read cycles: 13520898
4banks busy for write cycles: 532703
5banks busy for read cycles: 3342939
5banks busy for write cycles: 298171
6banks busy for read cycles: 929218
6banks busy for write cycles: 218999
7banks busy for read cycles: 174736
7banks busy for write cycles: 444774
8banks busy for read cycles: 217755
8banks busy for write cycles: 3316309

CPU 0 Branch Prediction Accuracy: 96.9509% MPKI: 5.6443 Average ROB Occupancy at Mispredict: 137.422
Branch types
NOT_BRANCH: 162977012 81.4885%
BRANCH_DIRECT_JUMP: 66 3.3e-05%
BRANCH_INDIRECT: 4 2e-06%
BRANCH_CONDITIONAL: 37022851 18.5114%
BRANCH_DIRECT_CALL: 28 1.4e-05%
BRANCH_INDIRECT_CALL: 5 2.5e-06%
BRANCH_RETURN: 33 1.65e-05%
BRANCH_OTHER: 0 0%

DRAM PAGES: 1048576
Allocated PAGES: 34901
