Initialize SIGNATURE TABLE
ST_SET: 1
ST_WAY: 256
ST_TAG_BIT: 16
ST_TAG_MASK: ffff

Initialize PATTERN TABLE
PT_SET: 512
PT_WAY: 4
SIG_DELTA_BIT: 7
C_SIG_BIT: 4
C_DELTA_BIT: 4

Initialize PREFETCH FILTER
FILTER_SET: 1024

Initialize PERCEPTRON
PERC_ENTRIES: 4096
PERC_FEATURES: 9

*** ChampSim Multicore Out-of-Order Simulator ***

Warmup Instructions: 50000000
Simulation Instructions: 200000000
Number of CPUs: 1
LLC sets: 2048
LLC ways: 16
L0D sets: 16
L0D ways: 2
ROB size: 352
LQ size: 128
SQ size: 72
Secure Berti: OFF
Berti: OFF
Berti Fill: OFF
On commit prefetching: OFF
Hit-based filter: ON
Time-guarding: ON
Free-slotting: ON
Leap-frogging: ON
Train prefetcher on L0D bypass: OFF
No translation penalty for prefetchers: OFF
Prefetch to L0D only: OFF
Prefetch to L1D only: OFF
Clean evictions: ON
Commit loads: ON
Commit write: ON
Fill commit loads to L2C, LLC: ON
DRAM IO FREQUENCY: 6400
ROB SIZE: 352
Off-chip DRAM Size: 4096 MB Channels: 1 Width: 64-bit Data Rate: 6400 MT/s
CPU 0 runs /home/sumon/secure_berti/GhostMinion/../../traces/gap/sssp-14.trace.gz
.gz
BTB has LRU replacement policy
ITLB has LRU replacement policy
DTLB has LRU replacement policy
STLB has LRU replacement policy
L1I has LRU replacement policy
L0D has LRU replacement policy
L1D has LRU replacement policy
PERC_ENTRIES: 4096
L2C has LRU replacement policy
LLC has LRU replacement policy
Heartbeat CPU 0 instructions: 10000000 cycles: 3990773 heartbeat IPC: 2.50578 cumulative IPC: 2.50578 (Simulation time: 0 hr 0 min 27 sec) 
Heartbeat CPU 0 instructions: 20000003 cycles: 7855884 heartbeat IPC: 2.58725 cumulative IPC: 2.54586 (Simulation time: 0 hr 0 min 58 sec) 
Heartbeat CPU 0 instructions: 30000001 cycles: 11663004 heartbeat IPC: 2.62666 cumulative IPC: 2.57224 (Simulation time: 0 hr 1 min 31 sec) 
Heartbeat CPU 0 instructions: 40000003 cycles: 15444293 heartbeat IPC: 2.6446 cumulative IPC: 2.58995 (Simulation time: 0 hr 2 min 4 sec) 
Heartbeat CPU 0 instructions: 50000000 cycles: 19206806 heartbeat IPC: 2.6578 cumulative IPC: 2.60324 (Simulation time: 0 hr 2 min 37 sec) 

Warmup complete CPU 0 instructions: 50000004 cycles: 19206807 (Simulation time: 0 hr 2 min 37 sec) 

Heartbeat CPU 0 instructions: 60000002 cycles: 48054552 heartbeat IPC: 0.346648 cumulative IPC: 0.346647 (Simulation time: 0 hr 3 min 22 sec) 
Heartbeat CPU 0 instructions: 70000001 cycles: 75583272 heartbeat IPC: 0.363257 cumulative IPC: 0.354758 (Simulation time: 0 hr 4 min 7 sec) 
Heartbeat CPU 0 instructions: 80000003 cycles: 102073831 heartbeat IPC: 0.377493 cumulative IPC: 0.362026 (Simulation time: 0 hr 4 min 51 sec) 
Heartbeat CPU 0 instructions: 90000003 cycles: 127961501 heartbeat IPC: 0.386284 cumulative IPC: 0.3678 (Simulation time: 0 hr 5 min 36 sec) 
Heartbeat CPU 0 instructions: 100000002 cycles: 153375994 heartbeat IPC: 0.393476 cumulative IPC: 0.372664 (Simulation time: 0 hr 6 min 21 sec) 
Heartbeat CPU 0 instructions: 110000000 cycles: 179174650 heartbeat IPC: 0.387617 cumulative IPC: 0.375075 (Simulation time: 0 hr 7 min 6 sec) 
Heartbeat CPU 0 instructions: 120000001 cycles: 204358174 heartbeat IPC: 0.397085 cumulative IPC: 0.378069 (Simulation time: 0 hr 7 min 52 sec) 
Heartbeat CPU 0 instructions: 130000003 cycles: 228740759 heartbeat IPC: 0.410129 cumulative IPC: 0.3818 (Simulation time: 0 hr 8 min 35 sec) 
Heartbeat CPU 0 instructions: 140000003 cycles: 253984303 heartbeat IPC: 0.396141 cumulative IPC: 0.383342 (Simulation time: 0 hr 9 min 20 sec) 
Heartbeat CPU 0 instructions: 150000000 cycles: 278643161 heartbeat IPC: 0.405534 cumulative IPC: 0.385451 (Simulation time: 0 hr 10 min 5 sec) 
Heartbeat CPU 0 instructions: 160000002 cycles: 302911105 heartbeat IPC: 0.412066 cumulative IPC: 0.387728 (Simulation time: 0 hr 10 min 50 sec) 
Heartbeat CPU 0 instructions: 170000003 cycles: 327266628 heartbeat IPC: 0.410585 cumulative IPC: 0.389535 (Simulation time: 0 hr 11 min 35 sec) 
Heartbeat CPU 0 instructions: 180000003 cycles: 351214929 heartbeat IPC: 0.417566 cumulative IPC: 0.391557 (Simulation time: 0 hr 12 min 25 sec) 
Heartbeat CPU 0 instructions: 190000001 cycles: 375143448 heartbeat IPC: 0.417911 cumulative IPC: 0.393328 (Simulation time: 0 hr 13 min 17 sec) 
Heartbeat CPU 0 instructions: 200000001 cycles: 398979752 heartbeat IPC: 0.419528 cumulative IPC: 0.394973 (Simulation time: 0 hr 14 min 7 sec) 
Heartbeat CPU 0 instructions: 210000002 cycles: 423218287 heartbeat IPC: 0.412566 cumulative IPC: 0.396028 (Simulation time: 0 hr 14 min 58 sec) 
Heartbeat CPU 0 instructions: 220000000 cycles: 446986281 heartbeat IPC: 0.420734 cumulative IPC: 0.397401 (Simulation time: 0 hr 15 min 49 sec) 
Heartbeat CPU 0 instructions: 230000001 cycles: 470292072 heartbeat IPC: 0.429078 cumulative IPC: 0.399038 (Simulation time: 0 hr 16 min 39 sec) 
Heartbeat CPU 0 instructions: 240000003 cycles: 493917169 heartbeat IPC: 0.423279 cumulative IPC: 0.400244 (Simulation time: 0 hr 17 min 29 sec) 
Heartbeat CPU 0 instructions: 250000001 cycles: 517159902 heartbeat IPC: 0.430242 cumulative IPC: 0.401644 (Simulation time: 0 hr 18 min 18 sec) 
Finished CPU 0 instructions: 200000001 cycles: 497953096 cumulative IPC: 0.401644 (Simulation time: 0 hr 18 min 18 sec) 
 Instruction ID: 250000171

ChampSim completed all CPUs

Region of Interest Statistics

CPU 0 cumulative IPC: 0.401644 instructions: 200000001 cycles: 497953096
ITLB SPEC fills:          0  NON-SPEC fills:          0
ITLB Test counter :          0
ITLB Leapfrog:          0
ITLB MSHR merge:          0
ITLB TOTAL     ACCESS:   24204809  HIT:   24204809  MISS:          0  HIT %:        100  MISS %:          0   MPKI: 0
ITLB LOAD TRANSLATION NON_SPEC    ACCESS:   24204809  HIT:   24204809  MISS:          0  HIT %:        100  MISS %:          0   MPKI: 0
ITLB PREFETCH  REQUESTED:          0  ISSUED:          0  USEFUL:          0  USELESS:          0
ITLB USEFUL LOAD PREFETCHES:          0 PREFETCH ISSUED TO LOWER LEVEL:          0  ACCURACY: -nan
ITLB TIMELY PREFETCHES:          0 LATE PREFETCHES: 0 DROPPED PREFETCHES: 0
ITLB COMMIT LATE PREFETCHES: 0 MISSED OPPORTUNITY: 0 LATE IN PQ: 0 UNCOVERED: 0
ITLB COMMIT LATE MSHR PREFETCHES: 0
ITLB MPKI TOTAL: 0 MSHR LATE: 0 PQ LATE: 0 COMMIT LATE: 0 MISSED OPPORTUNITY: 0 UNCOVERED: 0
ITLB PREFETCHES SAME FILL-ORIGIN LEVEL: 0 DIFFERENT FILL-ORIGIN LEVEL: 0
ITLB AVERAGE MISS LATENCY: -nan cycles
ITLB AVERAGE MISS LATENCY LOAD: -nan cycles
ITLB AVERAGE MISS LATENCY PREFETCH: -nan cycles
ITLB AVERAGE MSHR OCCUPANCY: 0
ITLB MSHR FULL: 0
ITLB RQ	ACCESS:   24872832	FORWARD:          0	MERGED:     668023	TO_CACHE:   24204809

DTLB SPEC fills:          0  NON-SPEC fills:          0
DTLB Test counter :          0
DTLB Leapfrog:          0
DTLB MSHR merge:          0
DTLB TOTAL     ACCESS:   48416922  HIT:   43868712  MISS:    4548210  HIT %:    90.6062  MISS %:    9.39384   MPKI: 22.741
DTLB LOAD TRANSLATION NON_SPEC    ACCESS:   48416922  HIT:   43868712  MISS:    4548210  HIT %:    90.6062  MISS %:    9.39384   MPKI: 22.741
DTLB PREFETCH  REQUESTED:          0  ISSUED:          0  USEFUL:          0  USELESS:          0
DTLB USEFUL LOAD PREFETCHES:          0 PREFETCH ISSUED TO LOWER LEVEL:          0  ACCURACY: -nan
DTLB TIMELY PREFETCHES:          0 LATE PREFETCHES: 0 DROPPED PREFETCHES: 0
DTLB COMMIT LATE PREFETCHES: 0 MISSED OPPORTUNITY: 0 LATE IN PQ: 0 UNCOVERED: 0
DTLB COMMIT LATE MSHR PREFETCHES: 0
DTLB MPKI TOTAL: 0 MSHR LATE: 0 PQ LATE: 0 COMMIT LATE: 0 MISSED OPPORTUNITY: 0 UNCOVERED: 0
DTLB PREFETCHES SAME FILL-ORIGIN LEVEL: 0 DIFFERENT FILL-ORIGIN LEVEL: 0
DTLB AVERAGE MISS LATENCY: 12.4013 cycles
DTLB AVERAGE MISS LATENCY LOAD: -nan cycles
DTLB AVERAGE MISS LATENCY PREFETCH: -nan cycles
DTLB AVERAGE MSHR OCCUPANCY: 0.229477
DTLB MSHR FULL: 2.45889e-07
DTLB RQ	ACCESS:   52874828	FORWARD:          0	MERGED:    4072306	TO_CACHE:   48802522

STLB SPEC fills:          0  NON-SPEC fills:          0
STLB Test counter :          0
STLB Leapfrog:          0
STLB MSHR merge:          0
STLB TOTAL     ACCESS:    4548211  HIT:    4488443  MISS:      59768  HIT %:    98.6859  MISS %:     1.3141   MPKI: 0.29884
STLB LOAD TRANSLATION NON_SPEC    ACCESS:    4548211  HIT:    4488443  MISS:      59768  HIT %:    98.6859  MISS %:     1.3141   MPKI: 0.29884
STLB PREFETCH  REQUESTED:          0  ISSUED:          0  USEFUL:          0  USELESS:          0
STLB USEFUL LOAD PREFETCHES:          0 PREFETCH ISSUED TO LOWER LEVEL:          0  ACCURACY: -nan
STLB TIMELY PREFETCHES:          0 LATE PREFETCHES: 0 DROPPED PREFETCHES: 0
STLB COMMIT LATE PREFETCHES: 0 MISSED OPPORTUNITY: 0 LATE IN PQ: 0 UNCOVERED: 0
STLB COMMIT LATE MSHR PREFETCHES: 0
STLB MPKI TOTAL: 0 MSHR LATE: 0 PQ LATE: 0 COMMIT LATE: 0 MISSED OPPORTUNITY: 0 UNCOVERED: 0
STLB PREFETCHES SAME FILL-ORIGIN LEVEL: 0 DIFFERENT FILL-ORIGIN LEVEL: 0
STLB AVERAGE MISS LATENCY: 241.488 cycles
STLB AVERAGE MISS LATENCY LOAD: -nan cycles
STLB AVERAGE MISS LATENCY PREFETCH: -nan cycles
STLB AVERAGE MSHR OCCUPANCY: 0.0106185
STLB MSHR FULL: 0
STLB RQ	ACCESS:    4548211	FORWARD:          0	MERGED:          0	TO_CACHE:    4548211

STLB Hit, L1D data hit: 0
STLB Hit, L2C data hit: 0
STLB Hit, LLC data hit: 0
STLB Hit, LLC data miss: 0
STLB STLB hints to L2: 0
L0D SPEC fills:   25892261  NON-SPEC fills:          0
L0D TimeGuard Request with older TS:    1994027 Restricted eviction:     197497 read:    4070334
L0D Test counter :          0
L0D Leapfrog:          0
L0D MSHR merge:    2991764
L0D TOTAL     ACCESS:   47652472  HIT:   16516099  MISS:   31136373  HIT %:    34.6595  MISS %:    65.3405   MPKI: 155.682
L0D LOAD      TOTAL       ACCESS:   47652472  HIT:   16516099  MISS:   31136373  HIT %:    34.6595  MISS %:    65.3405   MPKI: 155.682
L0D LOAD      NON_SPEC    ACCESS:    5132801  HIT:      86186  MISS:    5046615  HIT %:    1.67912  MISS %:    98.3209   MPKI: 25.2331
L0D LOAD      SPEC        ACCESS:   42519671  HIT:   16429913  MISS:   26089758  HIT %:    38.6407  MISS %:    61.3593   MPKI: 130.449
L0D PREFETCH  REQUESTED:          0  ISSUED:          0  USEFUL:          0  USELESS:          0
L0D USEFUL LOAD PREFETCHES:          0 PREFETCH ISSUED TO LOWER LEVEL:          0  ACCURACY: -nan
L0D TIMELY PREFETCHES:          0 LATE PREFETCHES: 0 DROPPED PREFETCHES: 0
L0D COMMIT LATE PREFETCHES: 0 MISSED OPPORTUNITY: 0 LATE IN PQ: 0 UNCOVERED: 0
L0D COMMIT LATE MSHR PREFETCHES: 0
L0D MPKI TOTAL: 170.641 MSHR LATE: 0 PQ LATE: 0 COMMIT LATE: 0 MISSED OPPORTUNITY: 0 UNCOVERED: 0
L0D PREFETCHES SAME FILL-ORIGIN LEVEL: 0 DIFFERENT FILL-ORIGIN LEVEL: 0
L0D AVERAGE MISS LATENCY: 31.0409 cycles
L0D AVERAGE MISS LATENCY LOAD: 31.0409 cycles
L0D AVERAGE MISS LATENCY PREFETCH: -nan cycles
L0D AVERAGE MSHR OCCUPANCY: 2.20742
L0D MSHR FULL: 0.0439289
L0D RQ	ACCESS:   76716095	FORWARD:          0	MERGED:   26071855	TO_CACHE:   50644240
L0D WQ	ACCESS:    2230588	FORWARD:          0	MERGED:          0	TO_CACHE:    2230588

L1D SPEC fills:          0  NON-SPEC fills:    1755976
L1D Test counter :          0
L1D Leapfrog:          0
L1D MSHR merge:       9676
L1D TOTAL     ACCESS:   44363784  HIT:   24250108  MISS:   20113676  HIT %:    54.6619  MISS %:    45.3381   MPKI: 100.568
L1D LOAD      TOTAL       ACCESS:   31126696  HIT:   20139168  MISS:   10987528  HIT %:    64.7006  MISS %:    35.2994   MPKI: 54.9376
L1D LOAD      NON_SPEC    ACCESS:    5045266  HIT:    3289290  MISS:    1755976  HIT %:    65.1956  MISS %:    34.8044   MPKI: 8.77988
L1D LOAD      SPEC        ACCESS:   26081430  HIT:   16849878  MISS:    9231552  HIT %:    64.6049  MISS %:    35.3951   MPKI: 46.1578
L1D RFO       NON_SPEC    ACCESS:    2040575  HIT:    1568834  MISS:     471741  HIT %:     76.882  MISS %:     23.118   MPKI: 2.3587
L1D COMMIT LOAD NON_SPEC    ACCESS:    1968439  HIT:    1831582  MISS:     136857  HIT %:    93.0474  MISS %:    6.95256   MPKI: 0.684285
L1D COMMIT WRITE NON_SPEC    ACCESS:    9228074  HIT:     710524  MISS:    8517550  HIT %:    7.69959  MISS %:    92.3004   MPKI: 42.5877
L1D PREFETCH  REQUESTED:          0  ISSUED:          0  USEFUL:          0  USELESS:          0
L1D USEFUL LOAD PREFETCHES:          0 PREFETCH ISSUED TO LOWER LEVEL:          0  ACCURACY: -nan
L1D TIMELY PREFETCHES:          0 LATE PREFETCHES: 0 DROPPED PREFETCHES: 0
L1D COMMIT LATE PREFETCHES: 0 MISSED OPPORTUNITY: 0 LATE IN PQ: 0 UNCOVERED: 0
L1D COMMIT LATE MSHR PREFETCHES: 0
L1D MPKI TOTAL: 54.986 MSHR LATE: 0 PQ LATE: 0 COMMIT LATE: 0 MISSED OPPORTUNITY: 0 UNCOVERED: 0
L1D PREFETCHES SAME FILL-ORIGIN LEVEL: 0 DIFFERENT FILL-ORIGIN LEVEL: 0
L1D AVERAGE MISS LATENCY: 42.8382 cycles
L1D AVERAGE MISS LATENCY LOAD: 73.3381 cycles
L1D AVERAGE MISS LATENCY PREFETCH: -nan cycles
L1D AVERAGE MSHR OCCUPANCY: 2.15633
L1D MSHR FULL: 0.0580479
L1D RQ	ACCESS:   34265300	FORWARD:          0	MERGED:    1136259	TO_CACHE:   33120071
L1D WQ	ACCESS:   11458699	FORWARD:       8970	MERGED:       1213	TO_CACHE:   11457486

L1D UNIQUE REGIONS ACCESSED: 0
L1D REGIONS CONFLICTS: 0
L1D Cross Page Prefetch Requests: 0
L1D Same Page Prefetch Requests: 0
L1D ROI Sum of L1D PQ occupancy: 0
L1D PREFETCHES PUSHED FROM L2C: 0
L1I SPEC fills:          0  NON-SPEC fills:          0
L1I Test counter :          0
L1I Leapfrog:          0
L1I MSHR merge:          0
L1I TOTAL     ACCESS:   24872830  HIT:   24872830  MISS:          0  HIT %:        100  MISS %:          0   MPKI: 0
L1I LOAD      TOTAL       ACCESS:   24872830  HIT:   24872830  MISS:          0  HIT %:        100  MISS %:          0   MPKI: 0
L1I LOAD      NON_SPEC    ACCESS:   24872830  HIT:   24872830  MISS:          0  HIT %:        100  MISS %:          0   MPKI: 0
L1I PREFETCH  REQUESTED:          0  ISSUED:          0  USEFUL:          0  USELESS:          0
L1I USEFUL LOAD PREFETCHES:          0 PREFETCH ISSUED TO LOWER LEVEL:          0  ACCURACY: -nan
L1I TIMELY PREFETCHES:          0 LATE PREFETCHES: 0 DROPPED PREFETCHES: 0
L1I COMMIT LATE PREFETCHES: 0 MISSED OPPORTUNITY: 0 LATE IN PQ: 0 UNCOVERED: 0
L1I COMMIT LATE MSHR PREFETCHES: 0
L1I MPKI TOTAL: 0 MSHR LATE: 0 PQ LATE: 0 COMMIT LATE: 0 MISSED OPPORTUNITY: 0 UNCOVERED: 0
L1I PREFETCHES SAME FILL-ORIGIN LEVEL: 0 DIFFERENT FILL-ORIGIN LEVEL: 0
L1I AVERAGE MISS LATENCY: -nan cycles
L1I AVERAGE MISS LATENCY LOAD: -nan cycles
L1I AVERAGE MISS LATENCY PREFETCH: -nan cycles
L1I AVERAGE MSHR OCCUPANCY: 0
L1I MSHR FULL: 0
L1I RQ	ACCESS:   38844949	FORWARD:          0	MERGED:   13972117	TO_CACHE:   24872832

BTB SPEC fills:          0  NON-SPEC fills:          0
BTB Test counter :          0
BTB Leapfrog:          0
BTB MSHR merge:          0
BTB TOTAL     ACCESS:   29059515  HIT:   29059368  MISS:        147  HIT %:    99.9995  MISS %: 0.000505858   MPKI: 0.000735
BTB BRANCH_DIRECT_JUMP	ACCESS:    9220889  HIT:    9220848  MISS:         41
BTB BRANCH_INDIRECT	ACCESS:          0  HIT:          0  MISS:          0
BTB BRANCH_CONDITIONAL	ACCESS:   19836026  HIT:   19835944  MISS:         82
BTB BRANCH_DIRECT_CALL	ACCESS:       1300  HIT:       1290  MISS:         10
BTB BRANCH_INDIRECT_CALL	ACCESS:          0  HIT:          0  MISS:          0
BTB BRANCH_RETURN	ACCESS:       1300  HIT:       1286  MISS:         14
BTB BRANCH_OTHER ACCESS:          0  HIT:          0  MISS:          0

L2C SPEC fills:          0  NON-SPEC fills:    1166222
L2C Test counter :          0
L2C Leapfrog:          0
L2C MSHR merge:     116295
L2C TOTAL     ACCESS:   21714917  HIT:    6240464  MISS:   15474453  HIT %:    28.7381  MISS %:    71.2619   MPKI: 77.3723
L2C LOAD      TOTAL       ACCESS:   10985920  HIT:    3912056  MISS:    7073864  HIT %:    35.6097  MISS %:    64.3903   MPKI: 35.3693
L2C LOAD      NON_SPEC    ACCESS:    1755976  HIT:     589754  MISS:    1166222  HIT %:    33.5855  MISS %:    66.4145   MPKI: 5.83111
L2C LOAD      SPEC        ACCESS:    9229944  HIT:    3322302  MISS:    5907642  HIT %:    35.9948  MISS %:    64.0052   MPKI: 29.5382
L2C RFO       NON_SPEC    ACCESS:     471709  HIT:     296319  MISS:     175390  HIT %:    62.8182  MISS %:    37.1818   MPKI: 0.87695
L2C PREFETCH  NON_SPEC    ACCESS:    2643399  HIT:     368436  MISS:    2274963  HIT %:     13.938  MISS %:     86.062   MPKI: 11.3748
L2C WRITEBACK NON_SPEC    ACCESS:     820721  HIT:     819433  MISS:       1288  HIT %:    99.8431  MISS %:   0.156935   MPKI: 0.00644
L2C CLEAN_EVICTION NON_SPEC    ACCESS:    6357473  HIT:     533058  MISS:    5824415  HIT %:    8.38475  MISS %:    91.6153   MPKI: 29.1221
L2C COMMIT LOAD NON_SPEC    ACCESS:     136857  HIT:      57156  MISS:      79701  HIT %:    41.7633  MISS %:    58.2367   MPKI: 0.398505
L2C LOAD TRANSLATION NON_SPEC    ACCESS:     298838  HIT:     254006  MISS:      44832  HIT %:    84.9979  MISS %:    15.0021   MPKI: 0.22416
L2C PREFETCH  REQUESTED:    4264533  ISSUED:    4264533  USEFUL:    1228311  USELESS:    1046926
L2C USEFUL LOAD PREFETCHES:    1228311 PREFETCH ISSUED TO LOWER LEVEL:    3715632  ACCURACY: 33.0579
L2C TIMELY PREFETCHES:    1228311 LATE PREFETCHES: 116308 DROPPED PREFETCHES: 0
L2C COMMIT LATE PREFETCHES: 0 MISSED OPPORTUNITY: 0 LATE IN PQ: 0 UNCOVERED: 0
L2C COMMIT LATE MSHR PREFETCHES: 0
L2C MPKI TOTAL: 35.3693 MSHR LATE: 0.58154 PQ LATE: 0 COMMIT LATE: 0 MISSED OPPORTUNITY: 0 UNCOVERED: 0
L2C PREFETCHES SAME FILL-ORIGIN LEVEL: 2391272 DIFFERENT FILL-ORIGIN LEVEL: 1324360
L2C AVERAGE MISS LATENCY: 75.7463 cycles
L2C AVERAGE MISS LATENCY LOAD: 95.1939 cycles
L2C AVERAGE MISS LATENCY PREFETCH: 195.279 cycles
L2C AVERAGE MSHR OCCUPANCY: 2.43577
L2C MSHR FULL: 0
L2C RQ	ACCESS:   11894966	FORWARD:          0	MERGED:          0	TO_CACHE:   11893326
L2C WQ	ACCESS:    7178194	FORWARD:       1641	MERGED:          0	TO_CACHE:    7178194
L2C PQ	ACCESS:    4264533	FORWARD:          0	MERGED:      21265	TO_CACHE:    4243267

L2C Instructions Evicting Data 0
L2C Translations Evicting Data 44628
L2C Data Evicting Data 3680085
L2C Instructions Evicting Instructions 0
L2C Translations Evicting Instructions 0
L2C Data Evicting Instructions 0
L2C Instructions Evicting Translations 0
L2C Translations Evicting Translations 204
L2C Data Evicting Translations 16191
L2C Dense regions hint from L2: 0
PSCL5 SPEC fills:          0  NON-SPEC fills:          0
PSCL5 Test counter :          0
PSCL5 Leapfrog:          0
PSCL5 MSHR merge:          0
PSCL5 TOTAL     ACCESS:          0  HIT:          0  MISS:          0  HIT %:       -nan  MISS %:       -nan   MPKI: 0
PSCL5 PREFETCH  REQUESTED:          0  ISSUED:          0  USEFUL:          0  USELESS:          0
PSCL5 USEFUL LOAD PREFETCHES:          0 PREFETCH ISSUED TO LOWER LEVEL:          0  ACCURACY: -nan
PSCL5 TIMELY PREFETCHES:          0 LATE PREFETCHES: 0 DROPPED PREFETCHES: 0
PSCL5 COMMIT LATE PREFETCHES: 0 MISSED OPPORTUNITY: 0 LATE IN PQ: 0 UNCOVERED: 0
PSCL5 COMMIT LATE MSHR PREFETCHES: 0
PSCL5 MPKI TOTAL: 0 MSHR LATE: 0 PQ LATE: 0 COMMIT LATE: 0 MISSED OPPORTUNITY: 0 UNCOVERED: 0
PSCL5 PREFETCHES SAME FILL-ORIGIN LEVEL: 0 DIFFERENT FILL-ORIGIN LEVEL: 0

PSCL4 SPEC fills:          0  NON-SPEC fills:          0
PSCL4 Test counter :          0
PSCL4 Leapfrog:          0
PSCL4 MSHR merge:          0
PSCL4 TOTAL     ACCESS:          0  HIT:          0  MISS:          0  HIT %:       -nan  MISS %:       -nan   MPKI: 0
PSCL4 PREFETCH  REQUESTED:          0  ISSUED:          0  USEFUL:          0  USELESS:          0
PSCL4 USEFUL LOAD PREFETCHES:          0 PREFETCH ISSUED TO LOWER LEVEL:          0  ACCURACY: -nan
PSCL4 TIMELY PREFETCHES:          0 LATE PREFETCHES: 0 DROPPED PREFETCHES: 0
PSCL4 COMMIT LATE PREFETCHES: 0 MISSED OPPORTUNITY: 0 LATE IN PQ: 0 UNCOVERED: 0
PSCL4 COMMIT LATE MSHR PREFETCHES: 0
PSCL4 MPKI TOTAL: 0 MSHR LATE: 0 PQ LATE: 0 COMMIT LATE: 0 MISSED OPPORTUNITY: 0 UNCOVERED: 0
PSCL4 PREFETCHES SAME FILL-ORIGIN LEVEL: 0 DIFFERENT FILL-ORIGIN LEVEL: 0

PSCL3 SPEC fills:          0  NON-SPEC fills:          0
PSCL3 Test counter :          0
PSCL3 Leapfrog:          0
PSCL3 MSHR merge:          0
PSCL3 TOTAL     ACCESS:          0  HIT:          0  MISS:          0  HIT %:       -nan  MISS %:       -nan   MPKI: 0
PSCL3 PREFETCH  REQUESTED:          0  ISSUED:          0  USEFUL:          0  USELESS:          0
PSCL3 USEFUL LOAD PREFETCHES:          0 PREFETCH ISSUED TO LOWER LEVEL:          0  ACCURACY: -nan
PSCL3 TIMELY PREFETCHES:          0 LATE PREFETCHES: 0 DROPPED PREFETCHES: 0
PSCL3 COMMIT LATE PREFETCHES: 0 MISSED OPPORTUNITY: 0 LATE IN PQ: 0 UNCOVERED: 0
PSCL3 COMMIT LATE MSHR PREFETCHES: 0
PSCL3 MPKI TOTAL: 0 MSHR LATE: 0 PQ LATE: 0 COMMIT LATE: 0 MISSED OPPORTUNITY: 0 UNCOVERED: 0
PSCL3 PREFETCHES SAME FILL-ORIGIN LEVEL: 0 DIFFERENT FILL-ORIGIN LEVEL: 0

PSCL2 SPEC fills:          0  NON-SPEC fills:          0
PSCL2 Test counter :          0
PSCL2 Leapfrog:          0
PSCL2 MSHR merge:          0
PSCL2 TOTAL     ACCESS:          0  HIT:          0  MISS:          0  HIT %:       -nan  MISS %:       -nan   MPKI: 0
PSCL2 PREFETCH  REQUESTED:          0  ISSUED:          0  USEFUL:          0  USELESS:          0
PSCL2 USEFUL LOAD PREFETCHES:          0 PREFETCH ISSUED TO LOWER LEVEL:          0  ACCURACY: -nan
PSCL2 TIMELY PREFETCHES:          0 LATE PREFETCHES: 0 DROPPED PREFETCHES: 0
PSCL2 COMMIT LATE PREFETCHES: 0 MISSED OPPORTUNITY: 0 LATE IN PQ: 0 UNCOVERED: 0
PSCL2 COMMIT LATE MSHR PREFETCHES: 0
PSCL2 MPKI TOTAL: 0 MSHR LATE: 0 PQ LATE: 0 COMMIT LATE: 0 MISSED OPPORTUNITY: 0 UNCOVERED: 0
PSCL2 PREFETCHES SAME FILL-ORIGIN LEVEL: 0 DIFFERENT FILL-ORIGIN LEVEL: 0

LLC SPEC fills:          0  NON-SPEC fills:     471692
LLC Test counter :          0
LLC Leapfrog:          0
LLC MSHR merge:      15705
LLC TOTAL     ACCESS:   17577145  HIT:    8827881  MISS:    8749264  HIT %:    50.2236  MISS %:    49.7764   MPKI: 43.7463
LLC LOAD      TOTAL       ACCESS:    6957518  HIT:    4038868  MISS:    2918650  HIT %:    58.0504  MISS %:    41.9496   MPKI: 14.5932
LLC LOAD      NON_SPEC    ACCESS:    1157414  HIT:     685722  MISS:     471692  HIT %:     59.246  MISS %:     40.754   MPKI: 2.35846
LLC LOAD      SPEC        ACCESS:    5800104  HIT:    3353146  MISS:    2446958  HIT %:    57.8118  MISS %:    42.1882   MPKI: 12.2348
LLC RFO       NON_SPEC    ACCESS:     175389  HIT:      69533  MISS:     105856  HIT %:     39.645  MISS %:     60.355   MPKI: 0.52928
LLC PREFETCH  NON_SPEC    ACCESS:    3690517  HIT:     922859  MISS:    2767658  HIT %:    25.0062  MISS %:    74.9938   MPKI: 13.8383
LLC WRITEBACK NON_SPEC    ACCESS:     303558  HIT:     294272  MISS:       9286  HIT %:    96.9409  MISS %:    3.05905   MPKI: 0.04643
LLC CLEAN_EVICTION NON_SPEC    ACCESS:    6325652  HIT:    3426977  MISS:    2898675  HIT %:    54.1759  MISS %:    45.8241   MPKI: 14.4934
LLC COMMIT LOAD NON_SPEC    ACCESS:      79679  HIT:      65782  MISS:      13897  HIT %:    82.5588  MISS %:    17.4412   MPKI: 0.069485
LLC LOAD TRANSLATION NON_SPEC    ACCESS:      44832  HIT:       9590  MISS:      35242  HIT %:     21.391  MISS %:     78.609   MPKI: 0.17621
LLC PREFETCH  REQUESTED:          0  ISSUED:          0  USEFUL:     317664  USELESS:    2450701
LLC USEFUL LOAD PREFETCHES:     317664 PREFETCH ISSUED TO LOWER LEVEL:    2783363  ACCURACY: 11.413
LLC TIMELY PREFETCHES:     317664 LATE PREFETCHES: 15705 DROPPED PREFETCHES: 0
LLC COMMIT LATE PREFETCHES: 0 MISSED OPPORTUNITY: 0 LATE IN PQ: 0 UNCOVERED: 0
LLC COMMIT LATE MSHR PREFETCHES: 0
LLC MPKI TOTAL: 14.5932 MSHR LATE: 0.078525 PQ LATE: 0 COMMIT LATE: 0 MISSED OPPORTUNITY: 0 UNCOVERED: 0
LLC PREFETCHES SAME FILL-ORIGIN LEVEL: 780423 DIFFERENT FILL-ORIGIN LEVEL: 0
LLC AVERAGE MISS LATENCY: 124.819 cycles
LLC AVERAGE MISS LATENCY LOAD: 168.952 cycles
LLC AVERAGE MISS LATENCY PREFETCH: 199.998 cycles
LLC AVERAGE MSHR OCCUPANCY: 2.07603
LLC MSHR FULL: 0
LLC RQ	ACCESS:    7257480	FORWARD:          0	MERGED:          0	TO_CACHE:    7257419
LLC WQ	ACCESS:    6629211	FORWARD:         70	MERGED:          0	TO_CACHE:    6629211
LLC PQ	ACCESS:    3715632	FORWARD:          0	MERGED:       4102	TO_CACHE:    3711521

LLC Dense regions hint to LLC: 0

RAW hits: 63904
Loads Generated: 76780001
Loads sent to L1D: 76716095
Stores Generated: 2230587
Stores sent to L1D: 2230588
Major fault: 0 Minor fault: 36865
Allocated PAGES: 36865
Total Load insts: 93540417
Total Non-spec loads: 6313859
Percentage of speculative loads: 93.2501

LeapFrogging counter: 288701
Commit hits: 24028792 miss: 47440638
Commit hit %: 33.6211 miss %: 66.3789
Commits not translated: 0
Loads retired: 10987527
Stores retired: 2230588
Cache fills: 10987528
L1D response latency: 73.3381 cycles
Load retirement latency: 166.998 cycles
OOO test counter: 0
Discarded buffer inserts: 24028792 hits: 116808 hit %: 0.486117
Filter prediction accuracy: 97.7791
------------------
Depth Distribution
------------------
depth 0: 8274230
depth 1: 3475379
depth 2: 415232
depth 3: 402757
depth 4: 401929
depth 5: 208480
depth 6: 28718
depth 7: 8518
depth 8: 3013
depth 9: 2207
depth 10: 393
depth 11: 1164
depth 12: 506
depth 13: 50
depth 14: 804
depth 15: 63
depth 16: 15
depth 17: 1
depth 18: 0
depth 19: 0
depth 20: 0
depth 21: 0
depth 22: 0
depth 23: 0
depth 24: 0
depth 25: 0
depth 26: 0
depth 27: 0
depth 28: 0
depth 29: 0
Total: 13223459
------------------
ST read accesses: 7195723
ST write accesses: 3790198
PT read accesses: 106660716
PT write accesses: 7701675
FILTER read accesses: 44703234
FILTER write accesses: 31139933
GHR read accesses: 33157226
GHR write accesses: 381455
PERC read accesses: 662274072
PERC write accesses: 40448391
GHR counter read accesses: 21971842
GHR counter write accesses: 16029931
GHR ip read accesses: 63147657
GHR ip write accesses: 43943684
ST tag read accesses: 6163797075
ST tag write accesses: 1015069765

DRAM Statistics
 CHANNEL 0
 RQ ROW_BUFFER_HIT:    1017127  ROW_BUFFER_MISS:    4822276
 DBUS_CONGESTED:       2503
 WQ ROW_BUFFER_HIT:    1522678  ROW_BUFFER_MISS:    2427639  FULL:       6137

 AVG_CONGESTED_CYCLE: 5
 All warmup complete: 2
Channel 0 Bank busy for read cycles: 0
Channel 0 Bank busy for write cycles: 0
Channel 0
Rank 0
0banks busy for read cycles: 3731249
0banks busy for write cycles: 26499
1banks busy for read cycles: 125658298
1banks busy for write cycles: 5532432
2banks busy for read cycles: 85788465
2banks busy for write cycles: 7848668
3banks busy for read cycles: 57517897
3banks busy for write cycles: 10037659
4banks busy for read cycles: 33152261
4banks busy for write cycles: 12145129
5banks busy for read cycles: 16538815
5banks busy for write cycles: 14891227
6banks busy for read cycles: 7482403
6banks busy for write cycles: 19801199
7banks busy for read cycles: 3655688
7banks busy for write cycles: 32782755
8banks busy for read cycles: 2948119
8banks busy for write cycles: 58414334

CPU 0 Branch Prediction Accuracy: 97.7755% MPKI: 3.30878 Average ROB Occupancy at Mispredict: 162.225
Branch types
NOT_BRANCH: 170251427 85.1257%
BRANCH_DIRECT_JUMP: 9220889 4.61044%
BRANCH_INDIRECT: 0 0%
BRANCH_CONDITIONAL: 20524871 10.2624%
BRANCH_DIRECT_CALL: 1300 0.00065%
BRANCH_INDIRECT_CALL: 0 0%
BRANCH_RETURN: 1300 0.00065%
BRANCH_OTHER: 0 0%

DRAM PAGES: 1048576
Allocated PAGES: 36865
