Initialize SIGNATURE TABLE
ST_SET: 1
ST_WAY: 256
ST_TAG_BIT: 16
ST_TAG_MASK: ffff

Initialize PATTERN TABLE
PT_SET: 512
PT_WAY: 4
SIG_DELTA_BIT: 7
C_SIG_BIT: 4
C_DELTA_BIT: 4

Initialize PREFETCH FILTER
FILTER_SET: 1024

Initialize PERCEPTRON
PERC_ENTRIES: 4096
PERC_FEATURES: 9

*** ChampSim Multicore Out-of-Order Simulator ***

Warmup Instructions: 50000000
Simulation Instructions: 200000000
Number of CPUs: 1
LLC sets: 2048
LLC ways: 16
L0D sets: 16
L0D ways: 2
ROB size: 352
LQ size: 128
SQ size: 72
Secure Berti: OFF
Berti: OFF
Berti Fill: OFF
On commit prefetching: OFF
Hit-based filter: ON
Time-guarding: ON
Free-slotting: ON
Leap-frogging: ON
Train prefetcher on L0D bypass: OFF
No translation penalty for prefetchers: OFF
Prefetch to L0D only: OFF
Prefetch to L1D only: OFF
Clean evictions: ON
Commit loads: ON
Commit write: ON
Fill commit loads to L2C, LLC: ON
DRAM IO FREQUENCY: 6400
ROB SIZE: 352
Off-chip DRAM Size: 4096 MB Channels: 1 Width: 64-bit Data Rate: 6400 MT/s
CPU 0 runs /home/sumon/secure_berti/GhostMinion/../../traces/gap/sssp-5.trace.gz
.gz
BTB has LRU replacement policy
ITLB has LRU replacement policy
DTLB has LRU replacement policy
STLB has LRU replacement policy
L1I has LRU replacement policy
L0D has LRU replacement policy
L1D has LRU replacement policy
PERC_ENTRIES: 4096
L2C has LRU replacement policy
LLC has LRU replacement policy
Heartbeat CPU 0 instructions: 10000001 cycles: 3959742 heartbeat IPC: 2.52542 cumulative IPC: 2.52542 (Simulation time: 0 hr 0 min 28 sec) 
Heartbeat CPU 0 instructions: 20000000 cycles: 7793603 heartbeat IPC: 2.60834 cumulative IPC: 2.56621 (Simulation time: 0 hr 1 min 1 sec) 
Heartbeat CPU 0 instructions: 30000003 cycles: 11584301 heartbeat IPC: 2.63804 cumulative IPC: 2.58971 (Simulation time: 0 hr 1 min 36 sec) 
Heartbeat CPU 0 instructions: 40000000 cycles: 15350511 heartbeat IPC: 2.65519 cumulative IPC: 2.60578 (Simulation time: 0 hr 2 min 10 sec) 
Heartbeat CPU 0 instructions: 50000003 cycles: 19099826 heartbeat IPC: 2.66715 cumulative IPC: 2.61783 (Simulation time: 0 hr 2 min 44 sec) 

Warmup complete CPU 0 instructions: 50000003 cycles: 19099826 (Simulation time: 0 hr 2 min 44 sec) 

Heartbeat CPU 0 instructions: 60000002 cycles: 46910823 heartbeat IPC: 0.35957 cumulative IPC: 0.35957 (Simulation time: 0 hr 3 min 34 sec) 
Heartbeat CPU 0 instructions: 70000001 cycles: 74367105 heartbeat IPC: 0.364215 cumulative IPC: 0.361878 (Simulation time: 0 hr 4 min 26 sec) 
Heartbeat CPU 0 instructions: 80000000 cycles: 100721954 heartbeat IPC: 0.379437 cumulative IPC: 0.367547 (Simulation time: 0 hr 5 min 17 sec) 
Heartbeat CPU 0 instructions: 90000000 cycles: 127202418 heartbeat IPC: 0.377637 cumulative IPC: 0.370019 (Simulation time: 0 hr 6 min 10 sec) 
Heartbeat CPU 0 instructions: 100000000 cycles: 153402665 heartbeat IPC: 0.381676 cumulative IPC: 0.372293 (Simulation time: 0 hr 7 min 2 sec) 
Heartbeat CPU 0 instructions: 110000000 cycles: 178659583 heartbeat IPC: 0.395931 cumulative IPC: 0.376035 (Simulation time: 0 hr 7 min 55 sec) 
Heartbeat CPU 0 instructions: 120000000 cycles: 203374872 heartbeat IPC: 0.404608 cumulative IPC: 0.379867 (Simulation time: 0 hr 8 min 46 sec) 
Heartbeat CPU 0 instructions: 130000000 cycles: 229035328 heartbeat IPC: 0.389705 cumulative IPC: 0.381069 (Simulation time: 0 hr 9 min 37 sec) 
Heartbeat CPU 0 instructions: 140000000 cycles: 253805556 heartbeat IPC: 0.40371 cumulative IPC: 0.383459 (Simulation time: 0 hr 10 min 27 sec) 
Heartbeat CPU 0 instructions: 150000000 cycles: 278141351 heartbeat IPC: 0.410917 cumulative IPC: 0.386038 (Simulation time: 0 hr 11 min 16 sec) 
Heartbeat CPU 0 instructions: 160000000 cycles: 302077816 heartbeat IPC: 0.417773 cumulative IPC: 0.388723 (Simulation time: 0 hr 12 min 11 sec) 
Heartbeat CPU 0 instructions: 170000002 cycles: 326052560 heartbeat IPC: 0.417106 cumulative IPC: 0.39094 (Simulation time: 0 hr 13 min 9 sec) 
Heartbeat CPU 0 instructions: 180000000 cycles: 349996518 heartbeat IPC: 0.417642 cumulative IPC: 0.392872 (Simulation time: 0 hr 14 min 8 sec) 
Heartbeat CPU 0 instructions: 190000001 cycles: 374424213 heartbeat IPC: 0.409371 cumulative IPC: 0.394006 (Simulation time: 0 hr 15 min 8 sec) 
Heartbeat CPU 0 instructions: 200000001 cycles: 398112002 heartbeat IPC: 0.422158 cumulative IPC: 0.395766 (Simulation time: 0 hr 16 min 4 sec) 
Heartbeat CPU 0 instructions: 210000000 cycles: 421565280 heartbeat IPC: 0.42638 cumulative IPC: 0.39755 (Simulation time: 0 hr 17 min 2 sec) 
Heartbeat CPU 0 instructions: 220000000 cycles: 445090779 heartbeat IPC: 0.425071 cumulative IPC: 0.399069 (Simulation time: 0 hr 18 min 0 sec) 
Heartbeat CPU 0 instructions: 230000002 cycles: 468196780 heartbeat IPC: 0.432788 cumulative IPC: 0.400804 (Simulation time: 0 hr 18 min 57 sec) 
Heartbeat CPU 0 instructions: 240000002 cycles: 491565798 heartbeat IPC: 0.427917 cumulative IPC: 0.402145 (Simulation time: 0 hr 19 min 54 sec) 
Heartbeat CPU 0 instructions: 250000000 cycles: 514656850 heartbeat IPC: 0.433068 cumulative IPC: 0.403586 (Simulation time: 0 hr 20 min 51 sec) 
Finished CPU 0 instructions: 200000001 cycles: 495557025 cumulative IPC: 0.403586 (Simulation time: 0 hr 20 min 51 sec) 
 Instruction ID: 250000379

ChampSim completed all CPUs

Region of Interest Statistics

CPU 0 cumulative IPC: 0.403586 instructions: 200000001 cycles: 495557025
ITLB SPEC fills:          0  NON-SPEC fills:          0
ITLB Test counter :          0
ITLB Leapfrog:          0
ITLB MSHR merge:          0
ITLB TOTAL     ACCESS:   24223803  HIT:   24223803  MISS:          0  HIT %:        100  MISS %:          0   MPKI: 0
ITLB LOAD TRANSLATION NON_SPEC    ACCESS:   24223803  HIT:   24223803  MISS:          0  HIT %:        100  MISS %:          0   MPKI: 0
ITLB PREFETCH  REQUESTED:          0  ISSUED:          0  USEFUL:          0  USELESS:          0
ITLB USEFUL LOAD PREFETCHES:          0 PREFETCH ISSUED TO LOWER LEVEL:          0  ACCURACY: -nan
ITLB TIMELY PREFETCHES:          0 LATE PREFETCHES: 0 DROPPED PREFETCHES: 0
ITLB COMMIT LATE PREFETCHES: 0 MISSED OPPORTUNITY: 0 LATE IN PQ: 0 UNCOVERED: 0
ITLB COMMIT LATE MSHR PREFETCHES: 0
ITLB MPKI TOTAL: 0 MSHR LATE: 0 PQ LATE: 0 COMMIT LATE: 0 MISSED OPPORTUNITY: 0 UNCOVERED: 0
ITLB PREFETCHES SAME FILL-ORIGIN LEVEL: 0 DIFFERENT FILL-ORIGIN LEVEL: 0
ITLB AVERAGE MISS LATENCY: -nan cycles
ITLB AVERAGE MISS LATENCY LOAD: -nan cycles
ITLB AVERAGE MISS LATENCY PREFETCH: -nan cycles
ITLB AVERAGE MSHR OCCUPANCY: 0
ITLB MSHR FULL: 0
ITLB RQ	ACCESS:   24896682	FORWARD:          0	MERGED:     672879	TO_CACHE:   24223803

DTLB SPEC fills:          0  NON-SPEC fills:          0
DTLB Test counter :          0
DTLB Leapfrog:          0
DTLB MSHR merge:          0
DTLB TOTAL     ACCESS:   48440891  HIT:   43919033  MISS:    4521858  HIT %:    90.6652  MISS %:     9.3348   MPKI: 22.6093
DTLB LOAD TRANSLATION NON_SPEC    ACCESS:   48440891  HIT:   43919033  MISS:    4521858  HIT %:    90.6652  MISS %:     9.3348   MPKI: 22.6093
DTLB PREFETCH  REQUESTED:          0  ISSUED:          0  USEFUL:          0  USELESS:          0
DTLB USEFUL LOAD PREFETCHES:          0 PREFETCH ISSUED TO LOWER LEVEL:          0  ACCURACY: -nan
DTLB TIMELY PREFETCHES:          0 LATE PREFETCHES: 0 DROPPED PREFETCHES: 0
DTLB COMMIT LATE PREFETCHES: 0 MISSED OPPORTUNITY: 0 LATE IN PQ: 0 UNCOVERED: 0
DTLB COMMIT LATE MSHR PREFETCHES: 0
DTLB MPKI TOTAL: 0 MSHR LATE: 0 PQ LATE: 0 COMMIT LATE: 0 MISSED OPPORTUNITY: 0 UNCOVERED: 0
DTLB PREFETCHES SAME FILL-ORIGIN LEVEL: 0 DIFFERENT FILL-ORIGIN LEVEL: 0
DTLB AVERAGE MISS LATENCY: 12.355 cycles
DTLB AVERAGE MISS LATENCY LOAD: -nan cycles
DTLB AVERAGE MISS LATENCY PREFETCH: -nan cycles
DTLB AVERAGE MSHR OCCUPANCY: 0.227925
DTLB MSHR FULL: 1.8432e-07
DTLB RQ	ACCESS:   52872409	FORWARD:          0	MERGED:    4044374	TO_CACHE:   48828035

STLB SPEC fills:          0  NON-SPEC fills:          0
STLB Test counter :          0
STLB Leapfrog:          0
STLB MSHR merge:          0
STLB TOTAL     ACCESS:    4521858  HIT:    4463300  MISS:      58558  HIT %:     98.705  MISS %:      1.295   MPKI: 0.29279
STLB LOAD TRANSLATION NON_SPEC    ACCESS:    4521858  HIT:    4463300  MISS:      58558  HIT %:     98.705  MISS %:      1.295   MPKI: 0.29279
STLB PREFETCH  REQUESTED:          0  ISSUED:          0  USEFUL:          0  USELESS:          0
STLB USEFUL LOAD PREFETCHES:          0 PREFETCH ISSUED TO LOWER LEVEL:          0  ACCURACY: -nan
STLB TIMELY PREFETCHES:          0 LATE PREFETCHES: 0 DROPPED PREFETCHES: 0
STLB COMMIT LATE PREFETCHES: 0 MISSED OPPORTUNITY: 0 LATE IN PQ: 0 UNCOVERED: 0
STLB COMMIT LATE MSHR PREFETCHES: 0
STLB MPKI TOTAL: 0 MSHR LATE: 0 PQ LATE: 0 COMMIT LATE: 0 MISSED OPPORTUNITY: 0 UNCOVERED: 0
STLB PREFETCHES SAME FILL-ORIGIN LEVEL: 0 DIFFERENT FILL-ORIGIN LEVEL: 0
STLB AVERAGE MISS LATENCY: 241.578 cycles
STLB AVERAGE MISS LATENCY LOAD: -nan cycles
STLB AVERAGE MISS LATENCY PREFETCH: -nan cycles
STLB AVERAGE MSHR OCCUPANCY: 0.0102825
STLB MSHR FULL: 0
STLB RQ	ACCESS:    4521858	FORWARD:          0	MERGED:          0	TO_CACHE:    4521858

STLB Hit, L1D data hit: 0
STLB Hit, L2C data hit: 0
STLB Hit, LLC data hit: 0
STLB Hit, LLC data miss: 0
STLB STLB hints to L2: 0
L0D SPEC fills:   25884954  NON-SPEC fills:          0
L0D TimeGuard Request with older TS:    2003495 Restricted eviction:     200425 read:    4076214
L0D Test counter :          0
L0D Leapfrog:          0
L0D MSHR merge:    2965748
L0D TOTAL     ACCESS:   47665310  HIT:   16509773  MISS:   31155537  HIT %:    34.6369  MISS %:    65.3631   MPKI: 155.778
L0D LOAD      TOTAL       ACCESS:   47665310  HIT:   16509773  MISS:   31155537  HIT %:    34.6369  MISS %:    65.3631   MPKI: 155.778
L0D LOAD      NON_SPEC    ACCESS:    5146780  HIT:      76622  MISS:    5070158  HIT %:    1.48874  MISS %:    98.5113   MPKI: 25.3508
L0D LOAD      SPEC        ACCESS:   42518530  HIT:   16433151  MISS:   26085379  HIT %:    38.6494  MISS %:    61.3506   MPKI: 130.427
L0D PREFETCH  REQUESTED:          0  ISSUED:          0  USEFUL:          0  USELESS:          0
L0D USEFUL LOAD PREFETCHES:          0 PREFETCH ISSUED TO LOWER LEVEL:          0  ACCURACY: -nan
L0D TIMELY PREFETCHES:          0 LATE PREFETCHES: 0 DROPPED PREFETCHES: 0
L0D COMMIT LATE PREFETCHES: 0 MISSED OPPORTUNITY: 0 LATE IN PQ: 0 UNCOVERED: 0
L0D COMMIT LATE MSHR PREFETCHES: 0
L0D MPKI TOTAL: 170.606 MSHR LATE: 0 PQ LATE: 0 COMMIT LATE: 0 MISSED OPPORTUNITY: 0 UNCOVERED: 0
L0D PREFETCHES SAME FILL-ORIGIN LEVEL: 0 DIFFERENT FILL-ORIGIN LEVEL: 0
L0D AVERAGE MISS LATENCY: 30.779 cycles
L0D AVERAGE MISS LATENCY LOAD: 30.779 cycles
L0D AVERAGE MISS LATENCY PREFETCH: -nan cycles
L0D AVERAGE MSHR OCCUPANCY: 2.1959
L0D MSHR FULL: 0.0425681
L0D RQ	ACCESS:   76702387	FORWARD:          0	MERGED:   26071330	TO_CACHE:   50631057
L0D WQ	ACCESS:    2241352	FORWARD:          0	MERGED:          0	TO_CACHE:    2241352

L1D SPEC fills:          0  NON-SPEC fills:    1754183
L1D Test counter :          0
L1D Leapfrog:          0
L1D MSHR merge:       9195
L1D TOTAL     ACCESS:   44344750  HIT:   24280534  MISS:   20064216  HIT %:     54.754  MISS %:     45.246   MPKI: 100.321
L1D LOAD      TOTAL       ACCESS:   31146342  HIT:   20185845  MISS:   10960497  HIT %:    64.8097  MISS %:    35.1903   MPKI: 54.8025
L1D LOAD      NON_SPEC    ACCESS:    5068717  HIT:    3314534  MISS:    1754183  HIT %:     65.392  MISS %:     34.608   MPKI: 8.77091
L1D LOAD      SPEC        ACCESS:   26077625  HIT:   16871311  MISS:    9206314  HIT %:    64.6965  MISS %:    35.3035   MPKI: 46.0316
L1D RFO       NON_SPEC    ACCESS:    2048809  HIT:    1577597  MISS:     471212  HIT %:    77.0007  MISS %:    22.9993   MPKI: 2.35606
L1D COMMIT LOAD NON_SPEC    ACCESS:    1949730  HIT:    1814255  MISS:     135475  HIT %:    93.0516  MISS %:     6.9484   MPKI: 0.677375
L1D COMMIT WRITE NON_SPEC    ACCESS:    9199869  HIT:     702837  MISS:    8497032  HIT %:    7.63964  MISS %:    92.3604   MPKI: 42.4852
L1D PREFETCH  REQUESTED:          0  ISSUED:          0  USEFUL:          0  USELESS:          0
L1D USEFUL LOAD PREFETCHES:          0 PREFETCH ISSUED TO LOWER LEVEL:          0  ACCURACY: -nan
L1D TIMELY PREFETCHES:          0 LATE PREFETCHES: 0 DROPPED PREFETCHES: 0
L1D COMMIT LATE PREFETCHES: 0 MISSED OPPORTUNITY: 0 LATE IN PQ: 0 UNCOVERED: 0
L1D COMMIT LATE MSHR PREFETCHES: 0
L1D MPKI TOTAL: 54.8485 MSHR LATE: 0 PQ LATE: 0 COMMIT LATE: 0 MISSED OPPORTUNITY: 0 UNCOVERED: 0
L1D PREFETCHES SAME FILL-ORIGIN LEVEL: 0 DIFFERENT FILL-ORIGIN LEVEL: 0
L1D AVERAGE MISS LATENCY: 42.6164 cycles
L1D AVERAGE MISS LATENCY LOAD: 72.813 cycles
L1D AVERAGE MISS LATENCY PREFETCH: -nan cycles
L1D AVERAGE MSHR OCCUPANCY: 2.18674
L1D MSHR FULL: 0.0603785
L1D RQ	ACCESS:   34231576	FORWARD:          0	MERGED:    1107000	TO_CACHE:   33119590
L1D WQ	ACCESS:   11441224	FORWARD:       4986	MERGED:       1182	TO_CACHE:   11440042

L1D UNIQUE REGIONS ACCESSED: 0
L1D REGIONS CONFLICTS: 0
L1D Cross Page Prefetch Requests: 0
L1D Same Page Prefetch Requests: 0
L1D ROI Sum of L1D PQ occupancy: 0
L1D PREFETCHES PUSHED FROM L2C: 0
L1I SPEC fills:          0  NON-SPEC fills:          0
L1I Test counter :          0
L1I Leapfrog:          0
L1I MSHR merge:          0
L1I TOTAL     ACCESS:   24896680  HIT:   24896680  MISS:          0  HIT %:        100  MISS %:          0   MPKI: 0
L1I LOAD      TOTAL       ACCESS:   24896680  HIT:   24896680  MISS:          0  HIT %:        100  MISS %:          0   MPKI: 0
L1I LOAD      NON_SPEC    ACCESS:   24896680  HIT:   24896680  MISS:          0  HIT %:        100  MISS %:          0   MPKI: 0
L1I PREFETCH  REQUESTED:          0  ISSUED:          0  USEFUL:          0  USELESS:          0
L1I USEFUL LOAD PREFETCHES:          0 PREFETCH ISSUED TO LOWER LEVEL:          0  ACCURACY: -nan
L1I TIMELY PREFETCHES:          0 LATE PREFETCHES: 0 DROPPED PREFETCHES: 0
L1I COMMIT LATE PREFETCHES: 0 MISSED OPPORTUNITY: 0 LATE IN PQ: 0 UNCOVERED: 0
L1I COMMIT LATE MSHR PREFETCHES: 0
L1I MPKI TOTAL: 0 MSHR LATE: 0 PQ LATE: 0 COMMIT LATE: 0 MISSED OPPORTUNITY: 0 UNCOVERED: 0
L1I PREFETCHES SAME FILL-ORIGIN LEVEL: 0 DIFFERENT FILL-ORIGIN LEVEL: 0
L1I AVERAGE MISS LATENCY: -nan cycles
L1I AVERAGE MISS LATENCY LOAD: -nan cycles
L1I AVERAGE MISS LATENCY PREFETCH: -nan cycles
L1I AVERAGE MSHR OCCUPANCY: 0
L1I MSHR FULL: 0
L1I RQ	ACCESS:   38841910	FORWARD:          0	MERGED:   13945228	TO_CACHE:   24896682

BTB SPEC fills:          0  NON-SPEC fills:          0
BTB Test counter :          0
BTB Leapfrog:          0
BTB MSHR merge:          0
BTB TOTAL     ACCESS:   29044147  HIT:   29044001  MISS:        146  HIT %:    99.9995  MISS %: 0.000502683   MPKI: 0.00073
BTB BRANCH_DIRECT_JUMP	ACCESS:    9217196  HIT:    9217156  MISS:         40
BTB BRANCH_INDIRECT	ACCESS:          0  HIT:          0  MISS:          0
BTB BRANCH_CONDITIONAL	ACCESS:   19824303  HIT:   19824221  MISS:         82
BTB BRANCH_DIRECT_CALL	ACCESS:       1324  HIT:       1315  MISS:          9
BTB BRANCH_INDIRECT_CALL	ACCESS:          0  HIT:          0  MISS:          0
BTB BRANCH_RETURN	ACCESS:       1324  HIT:       1309  MISS:         15
BTB BRANCH_OTHER ACCESS:          0  HIT:          0  MISS:          0

L2C SPEC fills:          0  NON-SPEC fills:    1160266
L2C Test counter :          0
L2C Leapfrog:          0
L2C MSHR merge:     116630
L2C TOTAL     ACCESS:   21590882  HIT:    6219497  MISS:   15371385  HIT %:    28.8061  MISS %:    71.1939   MPKI: 76.8569
L2C LOAD      TOTAL       ACCESS:   10960483  HIT:    3915646  MISS:    7044837  HIT %:    35.7251  MISS %:    64.2749   MPKI: 35.2242
L2C LOAD      NON_SPEC    ACCESS:    1754180  HIT:     593914  MISS:    1160266  HIT %:    33.8571  MISS %:    66.1429   MPKI: 5.80133
L2C LOAD      SPEC        ACCESS:    9206303  HIT:    3321732  MISS:    5884571  HIT %:    36.0811  MISS %:    63.9189   MPKI: 29.4229
L2C RFO       NON_SPEC    ACCESS:     471178  HIT:     296502  MISS:     174676  HIT %:    62.9278  MISS %:    37.0722   MPKI: 0.87338
L2C PREFETCH  NON_SPEC    ACCESS:    2579341  HIT:     354203  MISS:    2225138  HIT %:    13.7323  MISS %:    86.2677   MPKI: 11.1257
L2C WRITEBACK NON_SPEC    ACCESS:     819307  HIT:     817784  MISS:       1523  HIT %:    99.8141  MISS %:   0.185889   MPKI: 0.007615
L2C CLEAN_EVICTION NON_SPEC    ACCESS:    6332310  HIT:     530295  MISS:    5802015  HIT %:    8.37443  MISS %:    91.6256   MPKI: 29.0101
L2C COMMIT LOAD NON_SPEC    ACCESS:     135475  HIT:      56223  MISS:      79252  HIT %:    41.5006  MISS %:    58.4994   MPKI: 0.39626
L2C LOAD TRANSLATION NON_SPEC    ACCESS:     292788  HIT:     248844  MISS:      43944  HIT %:    84.9912  MISS %:    15.0088   MPKI: 0.21972
L2C PREFETCH  REQUESTED:    4132209  ISSUED:    4132207  USEFUL:    1237357  USELESS:     991312
L2C USEFUL LOAD PREFETCHES:    1237357 PREFETCH ISSUED TO LOWER LEVEL:    3612465  ACCURACY: 34.2524
L2C TIMELY PREFETCHES:    1237357 LATE PREFETCHES: 116651 DROPPED PREFETCHES: 0
L2C COMMIT LATE PREFETCHES: 0 MISSED OPPORTUNITY: 0 LATE IN PQ: 0 UNCOVERED: 0
L2C COMMIT LATE MSHR PREFETCHES: 0
L2C MPKI TOTAL: 35.2242 MSHR LATE: 0.583255 PQ LATE: 0 COMMIT LATE: 0 MISSED OPPORTUNITY: 0 UNCOVERED: 0
L2C PREFETCHES SAME FILL-ORIGIN LEVEL: 2341788 DIFFERENT FILL-ORIGIN LEVEL: 1270677
L2C AVERAGE MISS LATENCY: 75.0988 cycles
L2C AVERAGE MISS LATENCY LOAD: 94.5242 cycles
L2C AVERAGE MISS LATENCY PREFETCH: 194.583 cycles
L2C AVERAGE MSHR OCCUPANCY: 2.42583
L2C MSHR FULL: 0
L2C RQ	ACCESS:   11859972	FORWARD:          0	MERGED:          0	TO_CACHE:   11859925
L2C WQ	ACCESS:    7151620	FORWARD:         47	MERGED:          3	TO_CACHE:    7151617
L2C PQ	ACCESS:    4132207	FORWARD:          0	MERGED:      19251	TO_CACHE:    4112956

L2C Instructions Evicting Data 0
L2C Translations Evicting Data 43744
L2C Data Evicting Data 3623587
L2C Instructions Evicting Instructions 0
L2C Translations Evicting Instructions 0
L2C Data Evicting Instructions 0
L2C Instructions Evicting Translations 0
L2C Translations Evicting Translations 200
L2C Data Evicting Translations 15745
L2C Dense regions hint from L2: 0
PSCL5 SPEC fills:          0  NON-SPEC fills:          0
PSCL5 Test counter :          0
PSCL5 Leapfrog:          0
PSCL5 MSHR merge:          0
PSCL5 TOTAL     ACCESS:          0  HIT:          0  MISS:          0  HIT %:       -nan  MISS %:       -nan   MPKI: 0
PSCL5 PREFETCH  REQUESTED:          0  ISSUED:          0  USEFUL:          0  USELESS:          0
PSCL5 USEFUL LOAD PREFETCHES:          0 PREFETCH ISSUED TO LOWER LEVEL:          0  ACCURACY: -nan
PSCL5 TIMELY PREFETCHES:          0 LATE PREFETCHES: 0 DROPPED PREFETCHES: 0
PSCL5 COMMIT LATE PREFETCHES: 0 MISSED OPPORTUNITY: 0 LATE IN PQ: 0 UNCOVERED: 0
PSCL5 COMMIT LATE MSHR PREFETCHES: 0
PSCL5 MPKI TOTAL: 0 MSHR LATE: 0 PQ LATE: 0 COMMIT LATE: 0 MISSED OPPORTUNITY: 0 UNCOVERED: 0
PSCL5 PREFETCHES SAME FILL-ORIGIN LEVEL: 0 DIFFERENT FILL-ORIGIN LEVEL: 0

PSCL4 SPEC fills:          0  NON-SPEC fills:          0
PSCL4 Test counter :          0
PSCL4 Leapfrog:          0
PSCL4 MSHR merge:          0
PSCL4 TOTAL     ACCESS:          0  HIT:          0  MISS:          0  HIT %:       -nan  MISS %:       -nan   MPKI: 0
PSCL4 PREFETCH  REQUESTED:          0  ISSUED:          0  USEFUL:          0  USELESS:          0
PSCL4 USEFUL LOAD PREFETCHES:          0 PREFETCH ISSUED TO LOWER LEVEL:          0  ACCURACY: -nan
PSCL4 TIMELY PREFETCHES:          0 LATE PREFETCHES: 0 DROPPED PREFETCHES: 0
PSCL4 COMMIT LATE PREFETCHES: 0 MISSED OPPORTUNITY: 0 LATE IN PQ: 0 UNCOVERED: 0
PSCL4 COMMIT LATE MSHR PREFETCHES: 0
PSCL4 MPKI TOTAL: 0 MSHR LATE: 0 PQ LATE: 0 COMMIT LATE: 0 MISSED OPPORTUNITY: 0 UNCOVERED: 0
PSCL4 PREFETCHES SAME FILL-ORIGIN LEVEL: 0 DIFFERENT FILL-ORIGIN LEVEL: 0

PSCL3 SPEC fills:          0  NON-SPEC fills:          0
PSCL3 Test counter :          0
PSCL3 Leapfrog:          0
PSCL3 MSHR merge:          0
PSCL3 TOTAL     ACCESS:          0  HIT:          0  MISS:          0  HIT %:       -nan  MISS %:       -nan   MPKI: 0
PSCL3 PREFETCH  REQUESTED:          0  ISSUED:          0  USEFUL:          0  USELESS:          0
PSCL3 USEFUL LOAD PREFETCHES:          0 PREFETCH ISSUED TO LOWER LEVEL:          0  ACCURACY: -nan
PSCL3 TIMELY PREFETCHES:          0 LATE PREFETCHES: 0 DROPPED PREFETCHES: 0
PSCL3 COMMIT LATE PREFETCHES: 0 MISSED OPPORTUNITY: 0 LATE IN PQ: 0 UNCOVERED: 0
PSCL3 COMMIT LATE MSHR PREFETCHES: 0
PSCL3 MPKI TOTAL: 0 MSHR LATE: 0 PQ LATE: 0 COMMIT LATE: 0 MISSED OPPORTUNITY: 0 UNCOVERED: 0
PSCL3 PREFETCHES SAME FILL-ORIGIN LEVEL: 0 DIFFERENT FILL-ORIGIN LEVEL: 0

PSCL2 SPEC fills:          0  NON-SPEC fills:          0
PSCL2 Test counter :          0
PSCL2 Leapfrog:          0
PSCL2 MSHR merge:          0
PSCL2 TOTAL     ACCESS:          0  HIT:          0  MISS:          0  HIT %:       -nan  MISS %:       -nan   MPKI: 0
PSCL2 PREFETCH  REQUESTED:          0  ISSUED:          0  USEFUL:          0  USELESS:          0
PSCL2 USEFUL LOAD PREFETCHES:          0 PREFETCH ISSUED TO LOWER LEVEL:          0  ACCURACY: -nan
PSCL2 TIMELY PREFETCHES:          0 LATE PREFETCHES: 0 DROPPED PREFETCHES: 0
PSCL2 COMMIT LATE PREFETCHES: 0 MISSED OPPORTUNITY: 0 LATE IN PQ: 0 UNCOVERED: 0
PSCL2 COMMIT LATE MSHR PREFETCHES: 0
PSCL2 MPKI TOTAL: 0 MSHR LATE: 0 PQ LATE: 0 COMMIT LATE: 0 MISSED OPPORTUNITY: 0 UNCOVERED: 0
PSCL2 PREFETCHES SAME FILL-ORIGIN LEVEL: 0 DIFFERENT FILL-ORIGIN LEVEL: 0

LLC SPEC fills:          0  NON-SPEC fills:     466603
LLC Test counter :          0
LLC Leapfrog:          0
LLC MSHR merge:      14483
LLC TOTAL     ACCESS:   17419563  HIT:    8776402  MISS:    8643161  HIT %:    50.3824  MISS %:    49.6176   MPKI: 43.2158
LLC LOAD      TOTAL       ACCESS:    6928158  HIT:    4033168  MISS:    2894990  HIT %:    58.2141  MISS %:    41.7859   MPKI: 14.4749
LLC LOAD      NON_SPEC    ACCESS:    1150935  HIT:     684332  MISS:     466603  HIT %:    59.4588  MISS %:    40.5412   MPKI: 2.33301
LLC LOAD      SPEC        ACCESS:    5777223  HIT:    3348836  MISS:    2428387  HIT %:    57.9662  MISS %:    42.0338   MPKI: 12.1419
LLC RFO       NON_SPEC    ACCESS:     174673  HIT:      66071  MISS:     108602  HIT %:    37.8255  MISS %:    62.1745   MPKI: 0.54301
LLC PREFETCH  NON_SPEC    ACCESS:    3589625  HIT:     878376  MISS:    2711249  HIT %:    24.4699  MISS %:    75.5301   MPKI: 13.5562
LLC WRITEBACK NON_SPEC    ACCESS:     302772  HIT:     293643  MISS:       9129  HIT %:    96.9849  MISS %:    3.01514   MPKI: 0.045645
LLC CLEAN_EVICTION NON_SPEC    ACCESS:    6301179  HIT:    3429806  MISS:    2871373  HIT %:    54.4312  MISS %:    45.5688   MPKI: 14.3569
LLC COMMIT LOAD NON_SPEC    ACCESS:      79212  HIT:      66028  MISS:      13184  HIT %:    83.3561  MISS %:    16.6439   MPKI: 0.06592
LLC LOAD TRANSLATION NON_SPEC    ACCESS:      43944  HIT:       9310  MISS:      34634  HIT %:    21.1861  MISS %:    78.8139   MPKI: 0.17317
LLC PREFETCH  REQUESTED:          0  ISSUED:          0  USEFUL:     303273  USELESS:    2416247
LLC USEFUL LOAD PREFETCHES:     303273 PREFETCH ISSUED TO LOWER LEVEL:    2725733  ACCURACY: 11.1263
LLC TIMELY PREFETCHES:     303273 LATE PREFETCHES: 14484 DROPPED PREFETCHES: 0
LLC COMMIT LATE PREFETCHES: 0 MISSED OPPORTUNITY: 0 LATE IN PQ: 0 UNCOVERED: 0
LLC COMMIT LATE MSHR PREFETCHES: 0
LLC MPKI TOTAL: 14.475 MSHR LATE: 0.07242 PQ LATE: 0 COMMIT LATE: 0 MISSED OPPORTUNITY: 0 UNCOVERED: 0
LLC PREFETCHES SAME FILL-ORIGIN LEVEL: 750345 DIFFERENT FILL-ORIGIN LEVEL: 0
LLC AVERAGE MISS LATENCY: 123.781 cycles
LLC AVERAGE MISS LATENCY LOAD: 167.955 cycles
LLC AVERAGE MISS LATENCY PREFETCH: 198.116 cycles
LLC AVERAGE MSHR OCCUPANCY: 2.05357
LLC MSHR FULL: 0
LLC RQ	ACCESS:    7226059	FORWARD:          0	MERGED:          0	TO_CACHE:    7225988
LLC WQ	ACCESS:    6603951	FORWARD:         72	MERGED:          0	TO_CACHE:    6603951
LLC PQ	ACCESS:    3612465	FORWARD:          0	MERGED:       3602	TO_CACHE:    3608862

LLC Dense regions hint to LLC: 0

RAW hits: 62545
Loads Generated: 76764935
Loads sent to L1D: 76702387
Stores Generated: 2241351
Stores sent to L1D: 2241352
Major fault: 0 Minor fault: 36864
Allocated PAGES: 36864
Total Load insts: 93558396
Total Non-spec loads: 6318982
Percentage of speculative loads: 93.2459

LeapFrogging counter: 287217
Commit hits: 24013253 miss: 47424067
Commit hit %: 33.6144 miss %: 66.3856
Commits not translated: 0
Loads retired: 10960490
Stores retired: 2241352
Cache fills: 10960497
L1D response latency: 72.813 cycles
Load retirement latency: 165.981 cycles
OOO test counter: 0
Discarded buffer inserts: 24013253 hits: 112652 hit %: 0.469124
Filter prediction accuracy: 97.8828
------------------
Depth Distribution
------------------
depth 0: 8388415
depth 1: 3335886
depth 2: 404500
depth 3: 390750
depth 4: 415800
depth 5: 233566
depth 6: 29560
depth 7: 7926
depth 8: 3345
depth 9: 2524
depth 10: 430
depth 11: 1267
depth 12: 1050
depth 13: 176
depth 14: 1230
depth 15: 39
depth 16: 13
depth 17: 4
depth 18: 0
depth 19: 0
depth 20: 0
depth 21: 0
depth 22: 0
depth 23: 0
depth 24: 0
depth 25: 0
depth 26: 0
depth 27: 0
depth 28: 0
depth 29: 0
Total: 13216481
------------------
ST read accesses: 7186720
ST write accesses: 3773764
PT read accesses: 107194112
PT write accesses: 7701860
FILTER read accesses: 44016006
FILTER write accesses: 30291523
GHR read accesses: 33005125
GHR write accesses: 379584
PERC read accesses: 664449984
PERC write accesses: 39051944
GHR counter read accesses: 21920968
GHR counter write accesses: 15901493
GHR ip read accesses: 61076223
GHR ip write accesses: 43841936
ST tag read accesses: 6147364890
ST tag write accesses: 1009009507

DRAM Statistics
 CHANNEL 0
 RQ ROW_BUFFER_HIT:     982611  ROW_BUFFER_MISS:    4778289
 DBUS_CONGESTED:       2599
 WQ ROW_BUFFER_HIT:    1529015  ROW_BUFFER_MISS:    2385594  FULL:       4889

 AVG_CONGESTED_CYCLE: 5
 All warmup complete: 2
Channel 0 Bank busy for read cycles: 0
Channel 0 Bank busy for write cycles: 0
Channel 0
Rank 0
0banks busy for read cycles: 3831814
0banks busy for write cycles: 27458
1banks busy for read cycles: 125537738
1banks busy for write cycles: 5627145
2banks busy for read cycles: 85872758
2banks busy for write cycles: 7889242
3banks busy for read cycles: 57501483
3banks busy for write cycles: 9943956
4banks busy for read cycles: 32662945
4banks busy for write cycles: 12031897
5banks busy for read cycles: 16171997
5banks busy for write cycles: 14772689
6banks busy for read cycles: 7082933
6banks busy for write cycles: 19972857
7banks busy for read cycles: 3352586
7banks busy for write cycles: 32871057
8banks busy for read cycles: 2895601
8banks busy for write cycles: 57510870

CPU 0 Branch Prediction Accuracy: 97.7638% MPKI: 3.32603 Average ROB Occupancy at Mispredict: 160.793
Branch types
NOT_BRANCH: 170252779 85.1264%
BRANCH_DIRECT_JUMP: 9217196 4.6086%
BRANCH_INDIRECT: 0 0%
BRANCH_CONDITIONAL: 20527371 10.2637%
BRANCH_DIRECT_CALL: 1324 0.000662%
BRANCH_INDIRECT_CALL: 0 0%
BRANCH_RETURN: 1324 0.000662%
BRANCH_OTHER: 0 0%

DRAM PAGES: 1048576
Allocated PAGES: 36864
