
*** ChampSim Multicore Out-of-Order Simulator ***

Warmup Instructions: 50000000
Simulation Instructions: 200000000
Number of CPUs: 1
LLC sets: 2048
LLC ways: 16
L0D sets: 16
L0D ways: 2
ROB size: 352
LQ size: 128
SQ size: 72
Secure Berti: OFF
Berti: OFF
Berti Fill: OFF
On commit prefetching: OFF
Hit-based filter: ON
Time-guarding: ON
Free-slotting: ON
Leap-frogging: ON
Train prefetcher on L0D bypass: OFF
No translation penalty for prefetchers: OFF
Prefetch to L0D only: OFF
Prefetch to L1D only: OFF
Clean evictions: ON
Commit loads: ON
Commit write: ON
Fill commit loads to L2C, LLC: ON
DRAM IO FREQUENCY: 6400
ROB SIZE: 352
Off-chip DRAM Size: 4096 MB Channels: 1 Width: 64-bit Data Rate: 6400 MT/s
CPU 0 runs /home/sumon/secure_berti/GhostMinion/../../traces/spec/602.gcc_s-734B.champsimtrace.xz
.xz
BTB has LRU replacement policy
ITLB has LRU replacement policy
DTLB has LRU replacement policy
STLB has LRU replacement policy
L1I has LRU replacement policy
L0D has LRU replacement policy
CPU 0 L1D IP-based stride prefetcher
L1D has LRU replacement policy
L2C has LRU replacement policy
LLC has LRU replacement policy
Heartbeat CPU 0 instructions: 10000002 cycles: 6637115 heartbeat IPC: 1.50668 cumulative IPC: 1.50668 (Simulation time: 0 hr 0 min 36 sec) 
Heartbeat CPU 0 instructions: 20000000 cycles: 13257270 heartbeat IPC: 1.51054 cumulative IPC: 1.50861 (Simulation time: 0 hr 1 min 13 sec) 
Heartbeat CPU 0 instructions: 30000000 cycles: 19893010 heartbeat IPC: 1.50699 cumulative IPC: 1.50807 (Simulation time: 0 hr 1 min 49 sec) 
Heartbeat CPU 0 instructions: 40000002 cycles: 26557168 heartbeat IPC: 1.50056 cumulative IPC: 1.50618 (Simulation time: 0 hr 2 min 26 sec) 
Heartbeat CPU 0 instructions: 50000000 cycles: 33194882 heartbeat IPC: 1.50654 cumulative IPC: 1.50626 (Simulation time: 0 hr 3 min 1 sec) 

Warmup complete CPU 0 instructions: 50000001 cycles: 33194883 (Simulation time: 0 hr 3 min 1 sec) 

Heartbeat CPU 0 instructions: 60000000 cycles: 54293540 heartbeat IPC: 0.473964 cumulative IPC: 0.473964 (Simulation time: 0 hr 3 min 56 sec) 
Heartbeat CPU 0 instructions: 70000002 cycles: 76511757 heartbeat IPC: 0.450081 cumulative IPC: 0.461714 (Simulation time: 0 hr 4 min 50 sec) 
Heartbeat CPU 0 instructions: 80000000 cycles: 97576893 heartbeat IPC: 0.474718 cumulative IPC: 0.465969 (Simulation time: 0 hr 5 min 45 sec) 
Heartbeat CPU 0 instructions: 90000000 cycles: 118816779 heartbeat IPC: 0.470812 cumulative IPC: 0.46717 (Simulation time: 0 hr 6 min 40 sec) 
Heartbeat CPU 0 instructions: 100000000 cycles: 150049336 heartbeat IPC: 0.320179 cumulative IPC: 0.427883 (Simulation time: 0 hr 7 min 35 sec) 
Heartbeat CPU 0 instructions: 110000000 cycles: 171051299 heartbeat IPC: 0.476146 cumulative IPC: 0.435235 (Simulation time: 0 hr 8 min 29 sec) 
Heartbeat CPU 0 instructions: 120000000 cycles: 192258950 heartbeat IPC: 0.471528 cumulative IPC: 0.440074 (Simulation time: 0 hr 9 min 24 sec) 
Heartbeat CPU 0 instructions: 130000001 cycles: 215940987 heartbeat IPC: 0.422261 cumulative IPC: 0.437766 (Simulation time: 0 hr 10 min 18 sec) 
Heartbeat CPU 0 instructions: 140000001 cycles: 237107773 heartbeat IPC: 0.472438 cumulative IPC: 0.441365 (Simulation time: 0 hr 11 min 13 sec) 
Heartbeat CPU 0 instructions: 150000000 cycles: 258451337 heartbeat IPC: 0.468525 cumulative IPC: 0.443938 (Simulation time: 0 hr 12 min 8 sec) 
Heartbeat CPU 0 instructions: 160000003 cycles: 280066455 heartbeat IPC: 0.462639 cumulative IPC: 0.445576 (Simulation time: 0 hr 13 min 1 sec) 
Heartbeat CPU 0 instructions: 170000000 cycles: 301085474 heartbeat IPC: 0.475759 cumulative IPC: 0.447944 (Simulation time: 0 hr 13 min 53 sec) 
Heartbeat CPU 0 instructions: 180000000 cycles: 322457869 heartbeat IPC: 0.467893 cumulative IPC: 0.449418 (Simulation time: 0 hr 14 min 45 sec) 
Heartbeat CPU 0 instructions: 190000002 cycles: 345459709 heartbeat IPC: 0.434748 cumulative IPC: 0.448337 (Simulation time: 0 hr 15 min 38 sec) 
Heartbeat CPU 0 instructions: 200000001 cycles: 367131637 heartbeat IPC: 0.461426 cumulative IPC: 0.449187 (Simulation time: 0 hr 16 min 28 sec) 
Heartbeat CPU 0 instructions: 210000000 cycles: 388180074 heartbeat IPC: 0.475095 cumulative IPC: 0.450723 (Simulation time: 0 hr 17 min 18 sec) 
Heartbeat CPU 0 instructions: 220000000 cycles: 409633804 heartbeat IPC: 0.466119 cumulative IPC: 0.4516 (Simulation time: 0 hr 18 min 7 sec) 
Heartbeat CPU 0 instructions: 230000002 cycles: 430697702 heartbeat IPC: 0.474746 cumulative IPC: 0.452827 (Simulation time: 0 hr 18 min 56 sec) 
Heartbeat CPU 0 instructions: 240000001 cycles: 451864252 heartbeat IPC: 0.472443 cumulative IPC: 0.453819 (Simulation time: 0 hr 19 min 46 sec) 
Heartbeat CPU 0 instructions: 250000002 cycles: 473979648 heartbeat IPC: 0.452174 cumulative IPC: 0.453736 (Simulation time: 0 hr 20 min 34 sec) 
Finished CPU 0 instructions: 200000001 cycles: 440784765 cumulative IPC: 0.453736 (Simulation time: 0 hr 20 min 34 sec) 
 Instruction ID: 250000360

ChampSim completed all CPUs

Region of Interest Statistics

CPU 0 cumulative IPC: 0.453736 instructions: 200000001 cycles: 440784765
ITLB SPEC fills:          0  NON-SPEC fills:          0
ITLB Test counter :          0
ITLB Leapfrog:          0
ITLB MSHR merge:          0
ITLB TOTAL     ACCESS:   44878319  HIT:   44878309  MISS:         10  HIT %:        100  MISS %: 2.22825e-05   MPKI: 5e-05
ITLB LOAD TRANSLATION NON_SPEC    ACCESS:   44878319  HIT:   44878309  MISS:         10  HIT %:        100  MISS %: 2.22825e-05   MPKI: 5e-05
ITLB PREFETCH  REQUESTED:          0  ISSUED:          0  USEFUL:          0  USELESS:          0
ITLB USEFUL LOAD PREFETCHES:          0 PREFETCH ISSUED TO LOWER LEVEL:          0  ACCURACY: -nan
ITLB TIMELY PREFETCHES:          0 LATE PREFETCHES: 0 DROPPED PREFETCHES: 0
ITLB COMMIT LATE PREFETCHES: 0 MISSED OPPORTUNITY: 0 LATE IN PQ: 0 UNCOVERED: 0
ITLB COMMIT LATE MSHR PREFETCHES: 0
ITLB MPKI TOTAL: 0 MSHR LATE: 0 PQ LATE: 0 COMMIT LATE: 0 MISSED OPPORTUNITY: 0 UNCOVERED: 0
ITLB PREFETCHES SAME FILL-ORIGIN LEVEL: 0 DIFFERENT FILL-ORIGIN LEVEL: 0
ITLB AVERAGE MISS LATENCY: 345.9 cycles
ITLB AVERAGE MISS LATENCY LOAD: -nan cycles
ITLB AVERAGE MISS LATENCY PREFETCH: -nan cycles
ITLB AVERAGE MSHR OCCUPANCY: 8.91299e-08
ITLB MSHR FULL: 0
ITLB RQ	ACCESS:   49673369	FORWARD:          0	MERGED:    4795045	TO_CACHE:   44878324

DTLB SPEC fills:          0  NON-SPEC fills:          0
DTLB Test counter :          0
DTLB Leapfrog:          0
DTLB MSHR merge:          0
DTLB TOTAL     ACCESS:   60318706  HIT:   60110311  MISS:     208395  HIT %:    99.6545  MISS %:    0.34549   MPKI: 1.04197
DTLB LOAD TRANSLATION NON_SPEC    ACCESS:   60318706  HIT:   60110311  MISS:     208395  HIT %:    99.6545  MISS %:    0.34549   MPKI: 1.04197
DTLB PREFETCH  REQUESTED:          0  ISSUED:          0  USEFUL:          0  USELESS:          0
DTLB USEFUL LOAD PREFETCHES:          0 PREFETCH ISSUED TO LOWER LEVEL:          0  ACCURACY: -nan
DTLB TIMELY PREFETCHES:          0 LATE PREFETCHES: 0 DROPPED PREFETCHES: 0
DTLB COMMIT LATE PREFETCHES: 0 MISSED OPPORTUNITY: 0 LATE IN PQ: 0 UNCOVERED: 0
DTLB COMMIT LATE MSHR PREFETCHES: 0
DTLB MPKI TOTAL: 0 MSHR LATE: 0 PQ LATE: 0 COMMIT LATE: 0 MISSED OPPORTUNITY: 0 UNCOVERED: 0
DTLB PREFETCHES SAME FILL-ORIGIN LEVEL: 0 DIFFERENT FILL-ORIGIN LEVEL: 0
DTLB AVERAGE MISS LATENCY: 44.9282 cycles
DTLB AVERAGE MISS LATENCY LOAD: -nan cycles
DTLB AVERAGE MISS LATENCY PREFETCH: -nan cycles
DTLB AVERAGE MSHR OCCUPANCY: 0.0040859
DTLB MSHR FULL: 0
DTLB RQ	ACCESS:   63403387	FORWARD:          0	MERGED:    3081308	TO_CACHE:   60322079

STLB SPEC fills:          0  NON-SPEC fills:          0
STLB Test counter :          0
STLB Leapfrog:          0
STLB MSHR merge:          0
STLB TOTAL     ACCESS:    8043402  HIT:    7990805  MISS:      52597  HIT %:    99.3461  MISS %:   0.653915   MPKI: 0.262985
STLB LOAD TRANSLATION NON_SPEC    ACCESS:     208405  HIT:     155813  MISS:      52592  HIT %:    74.7645  MISS %:    25.2355   MPKI: 0.26296
STLB TRANSLATION FROM L1D PREFETCHER NON_SPEC    ACCESS:    7834997  HIT:    7834992  MISS:          5  HIT %:    99.9999  MISS %: 6.38162e-05   MPKI: 2.5e-05
STLB PREFETCH  REQUESTED:          0  ISSUED:          0  USEFUL:          5  USELESS:          0
STLB USEFUL LOAD PREFETCHES:          5 PREFETCH ISSUED TO LOWER LEVEL:          0  ACCURACY: inf
STLB TIMELY PREFETCHES:          5 LATE PREFETCHES: 0 DROPPED PREFETCHES: 0
STLB COMMIT LATE PREFETCHES: 0 MISSED OPPORTUNITY: 0 LATE IN PQ: 0 UNCOVERED: 0
STLB COMMIT LATE MSHR PREFETCHES: 0
STLB MPKI TOTAL: 0 MSHR LATE: 0 PQ LATE: 0 COMMIT LATE: 0 MISSED OPPORTUNITY: 0 UNCOVERED: 0
STLB PREFETCHES SAME FILL-ORIGIN LEVEL: 0 DIFFERENT FILL-ORIGIN LEVEL: 0
STLB AVERAGE MISS LATENCY: 142.437 cycles
STLB AVERAGE MISS LATENCY LOAD: -nan cycles
STLB AVERAGE MISS LATENCY PREFETCH: -nan cycles
STLB AVERAGE MSHR OCCUPANCY: 0.0034049
STLB MSHR FULL: 0
STLB RQ	ACCESS:   20291175	FORWARD:          0	MERGED:   12247773	TO_CACHE:    8043402

STLB Hit, L1D data hit: 0
STLB Hit, L2C data hit: 0
STLB Hit, LLC data hit: 0
STLB Hit, LLC data miss: 0
STLB STLB hints to L2: 0
L0D SPEC fills:   17698576  NON-SPEC fills:          0
L0D TimeGuard Request with older TS:     457603 Restricted eviction:      20534 read:    1820813
L0D Test counter :          0
L0D Leapfrog:          0
L0D MSHR merge:    1666963
L0D TOTAL     ACCESS:   39796627  HIT:    6832588  MISS:   32964039  HIT %:    17.1688  MISS %:    82.8312   MPKI: 164.82
L0D LOAD      TOTAL       ACCESS:   39796627  HIT:    6832588  MISS:   32964039  HIT %:    17.1688  MISS %:    82.8312   MPKI: 164.82
L0D LOAD      NON_SPEC    ACCESS:   15437870  HIT:     192941  MISS:   15244929  HIT %:    1.24979  MISS %:    98.7502   MPKI: 76.2246
L0D LOAD      SPEC        ACCESS:   24358757  HIT:    6639647  MISS:   17719110  HIT %:    27.2577  MISS %:    72.7423   MPKI: 88.5955
L0D PREFETCH  REQUESTED:          0  ISSUED:          0  USEFUL:          0  USELESS:          0
L0D USEFUL LOAD PREFETCHES:          0 PREFETCH ISSUED TO LOWER LEVEL:          0  ACCURACY: -nan
L0D TIMELY PREFETCHES:          0 LATE PREFETCHES: 0 DROPPED PREFETCHES: 0
L0D COMMIT LATE PREFETCHES: 0 MISSED OPPORTUNITY: 0 LATE IN PQ: 0 UNCOVERED: 0
L0D COMMIT LATE MSHR PREFETCHES: 0
L0D MPKI TOTAL: 173.155 MSHR LATE: 0 PQ LATE: 0 COMMIT LATE: 0 MISSED OPPORTUNITY: 0 UNCOVERED: 0
L0D PREFETCHES SAME FILL-ORIGIN LEVEL: 0 DIFFERENT FILL-ORIGIN LEVEL: 0
L0D AVERAGE MISS LATENCY: 6.17974 cycles
L0D AVERAGE MISS LATENCY LOAD: 6.17974 cycles
L0D AVERAGE MISS LATENCY PREFETCH: -nan cycles
L0D AVERAGE MSHR OCCUPANCY: 0.65921
L0D MSHR FULL: 0
L0D RQ	ACCESS:   52855265	FORWARD:          0	MERGED:   11391675	TO_CACHE:   41463590
L0D WQ	ACCESS:   21939797	FORWARD:          0	MERGED:          0	TO_CACHE:   21939797

L1D SPEC fills:          0  NON-SPEC fills:     196142
L1D Test counter :          0
L1D Leapfrog:          0
L1D MSHR merge:     137073
L1D TOTAL     ACCESS:   74688990  HIT:   70590495  MISS:    4098495  HIT %:    94.5126  MISS %:    5.48742   MPKI: 20.4925
L1D LOAD      TOTAL       ACCESS:   32963326  HIT:   32328129  MISS:     635197  HIT %:     98.073  MISS %:    1.92698   MPKI: 3.17598
L1D LOAD      NON_SPEC    ACCESS:   15244799  HIT:   15048657  MISS:     196142  HIT %:    98.7134  MISS %:    1.28662   MPKI: 0.98071
L1D LOAD      SPEC        ACCESS:   17718527  HIT:   17279472  MISS:     439055  HIT %:    97.5221  MISS %:    2.47794   MPKI: 2.19527
L1D RFO       NON_SPEC    ACCESS:   21909269  HIT:   21907283  MISS:       1986  HIT %:    99.9909  MISS %: 0.00906466   MPKI: 0.00993
L1D PREFETCH  NON_SPEC    ACCESS:   18797062  HIT:   15762874  MISS:    3034188  HIT %:    83.8582  MISS %:    16.1418   MPKI: 15.1709
L1D COMMIT LOAD NON_SPEC    ACCESS:     494658  HIT:     493130  MISS:       1528  HIT %:    99.6911  MISS %:     0.3089   MPKI: 0.00764
L1D COMMIT WRITE NON_SPEC    ACCESS:     524675  HIT:      99079  MISS:     425596  HIT %:    18.8839  MISS %:    81.1161   MPKI: 2.12798
L1D PREFETCH  REQUESTED:   23267300  ISSUED:   23267300  USEFUL:    2957714  USELESS:      76453
L1D USEFUL LOAD PREFETCHES:    2957714 PREFETCH ISSUED TO LOWER LEVEL:    3170814  ACCURACY: 93.2793
L1D TIMELY PREFETCHES:    2957714 LATE PREFETCHES: 136360 DROPPED PREFETCHES: 0
L1D COMMIT LATE PREFETCHES: 0 MISSED OPPORTUNITY: 0 LATE IN PQ: 0 UNCOVERED: 0
L1D COMMIT LATE MSHR PREFETCHES: 0
L1D MPKI TOTAL: 3.17955 MSHR LATE: 0.6818 PQ LATE: 0 COMMIT LATE: 0 MISSED OPPORTUNITY: 0 UNCOVERED: 0
L1D PREFETCHES SAME FILL-ORIGIN LEVEL: 3170619 DIFFERENT FILL-ORIGIN LEVEL: 195
L1D AVERAGE MISS LATENCY: 66.1098 cycles
L1D AVERAGE MISS LATENCY LOAD: 61.5026 cycles
L1D AVERAGE MISS LATENCY PREFETCH: 76.3145 cycles
L1D AVERAGE MSHR OCCUPANCY: 0.416352
L1D MSHR FULL: 0
L1D RQ	ACCESS:   33675983	FORWARD:          0	MERGED:     212098	TO_CACHE:   33459016
L1D WQ	ACCESS:   22464643	FORWARD:       4869	MERGED:      27859	TO_CACHE:   22436784
L1D PQ	ACCESS:   23267300	FORWARD:          0	MERGED:    3184530	TO_CACHE:   20082770

L1D UNIQUE REGIONS ACCESSED: 0
L1D REGIONS CONFLICTS: 0
L1D Cross Page Prefetch Requests: 0
L1D Same Page Prefetch Requests: 29280677
L1D ROI Sum of L1D PQ occupancy: 274518591
L1D PREFETCHES PUSHED FROM L2C: 0
L1I SPEC fills:          0  NON-SPEC fills:          0
L1I Test counter :          0
L1I Leapfrog:          0
L1I MSHR merge:          9
L1I TOTAL     ACCESS:   49673358  HIT:   49673269  MISS:         89  HIT %:    99.9998  MISS %: 0.00017917   MPKI: 0.000445
L1I LOAD      TOTAL       ACCESS:   49673358  HIT:   49673269  MISS:         89  HIT %:    99.9998  MISS %: 0.00017917   MPKI: 0.000445
L1I LOAD      NON_SPEC    ACCESS:   49673358  HIT:   49673269  MISS:         89  HIT %:    99.9998  MISS %: 0.00017917   MPKI: 0.000445
L1I PREFETCH  REQUESTED:          0  ISSUED:          0  USEFUL:          0  USELESS:          0
L1I USEFUL LOAD PREFETCHES:          0 PREFETCH ISSUED TO LOWER LEVEL:          0  ACCURACY: -nan
L1I TIMELY PREFETCHES:          0 LATE PREFETCHES: 0 DROPPED PREFETCHES: 0
L1I COMMIT LATE PREFETCHES: 0 MISSED OPPORTUNITY: 0 LATE IN PQ: 0 UNCOVERED: 0
L1I COMMIT LATE MSHR PREFETCHES: 0
L1I MPKI TOTAL: 0.00049 MSHR LATE: 0 PQ LATE: 0 COMMIT LATE: 0 MISSED OPPORTUNITY: 0 UNCOVERED: 0
L1I PREFETCHES SAME FILL-ORIGIN LEVEL: 0 DIFFERENT FILL-ORIGIN LEVEL: 0
L1I AVERAGE MISS LATENCY: 197.91 cycles
L1I AVERAGE MISS LATENCY LOAD: 197.91 cycles
L1I AVERAGE MISS LATENCY PREFETCH: -nan cycles
L1I AVERAGE MSHR OCCUPANCY: 7.24734e-07
L1I MSHR FULL: 0
L1I RQ	ACCESS:   79981730	FORWARD:          0	MERGED:   30308361	TO_CACHE:   49673369

BTB SPEC fills:          0  NON-SPEC fills:          0
BTB Test counter :          0
BTB Leapfrog:          0
BTB MSHR merge:          0
BTB TOTAL     ACCESS:   37936625  HIT:   37889779  MISS:      46846  HIT %:    99.8765  MISS %:   0.123485   MPKI: 0.23423
BTB BRANCH_DIRECT_JUMP	ACCESS:    4848253  HIT:    4848175  MISS:         78
BTB BRANCH_INDIRECT	ACCESS:          0  HIT:          0  MISS:          0
BTB BRANCH_CONDITIONAL	ACCESS:   28192639  HIT:   28192467  MISS:        172
BTB BRANCH_DIRECT_CALL	ACCESS:    2447841  HIT:    2447798  MISS:         43
BTB BRANCH_INDIRECT_CALL	ACCESS:         26  HIT:         25  MISS:          1
BTB BRANCH_RETURN	ACCESS:    2447866  HIT:    2401314  MISS:      46552
BTB BRANCH_OTHER ACCESS:          0  HIT:          0  MISS:          0

L2C SPEC fills:          0  NON-SPEC fills:      64343
L2C Test counter :          0
L2C Leapfrog:          0
L2C MSHR merge:          6
L2C TOTAL     ACCESS:    4200893  HIT:    2131278  MISS:    2069615  HIT %:    50.7339  MISS %:    49.2661   MPKI: 10.3481
L2C LOAD      TOTAL       ACCESS:     498925  HIT:     315129  MISS:     183796  HIT %:    63.1616  MISS %:    36.8384   MPKI: 0.91898
L2C LOAD      NON_SPEC    ACCESS:     111400  HIT:      46968  MISS:      64432  HIT %:    42.1616  MISS %:    57.8384   MPKI: 0.32216
L2C LOAD      SPEC        ACCESS:     387525  HIT:     268161  MISS:     119364  HIT %:    69.1984  MISS %:    30.8016   MPKI: 0.59682
L2C RFO       NON_SPEC    ACCESS:       1915  HIT:        372  MISS:       1543  HIT %:    19.4256  MISS %:    80.5744   MPKI: 0.007715
L2C PREFETCH  NON_SPEC    ACCESS:    3170764  HIT:    1426242  MISS:    1744522  HIT %:     44.981  MISS %:     55.019   MPKI: 8.72261
L2C WRITEBACK NON_SPEC    ACCESS:      23488  HIT:      23453  MISS:         35  HIT %:     99.851  MISS %:   0.149012   MPKI: 0.000175
L2C CLEAN_EVICTION NON_SPEC    ACCESS:     241327  HIT:     122181  MISS:     119146  HIT %:    50.6288  MISS %:    49.3712   MPKI: 0.59573
L2C COMMIT LOAD NON_SPEC    ACCESS:       1528  HIT:       1454  MISS:         74  HIT %:    95.1571  MISS %:    4.84293   MPKI: 0.00037
L2C LOAD TRANSLATION NON_SPEC    ACCESS:     262921  HIT:     242430  MISS:      20491  HIT %:    92.2064  MISS %:     7.7936   MPKI: 0.102455
L2C TRANSLATION FROM L1D PREFETCHER NON_SPEC    ACCESS:         25  HIT:         17  MISS:          8  HIT %:         68  MISS %:         32   MPKI: 4e-05
L2C PREFETCH  REQUESTED:          0  ISSUED:          0  USEFUL:       4757  USELESS:    1739862
L2C USEFUL LOAD PREFETCHES:       4757 PREFETCH ISSUED TO LOWER LEVEL:    1744528  ACCURACY: 0.272681
L2C TIMELY PREFETCHES:       4757 LATE PREFETCHES: 6 DROPPED PREFETCHES: 0
L2C COMMIT LATE PREFETCHES: 0 MISSED OPPORTUNITY: 0 LATE IN PQ: 0 UNCOVERED: 0
L2C COMMIT LATE MSHR PREFETCHES: 0
L2C MPKI TOTAL: 0.91898 MSHR LATE: 3e-05 PQ LATE: 0 COMMIT LATE: 0 MISSED OPPORTUNITY: 0 UNCOVERED: 0
L2C PREFETCHES SAME FILL-ORIGIN LEVEL: 127 DIFFERENT FILL-ORIGIN LEVEL: 0
L2C AVERAGE MISS LATENCY: 113.515 cycles
L2C AVERAGE MISS LATENCY LOAD: 125.585 cycles
L2C AVERAGE MISS LATENCY PREFETCH: 119.226 cycles
L2C AVERAGE MSHR OCCUPANCY: 0.238445
L2C MSHR FULL: 0
L2C RQ	ACCESS:     765315	FORWARD:          0	MERGED:          0	TO_CACHE:     765314
L2C WQ	ACCESS:     264815	FORWARD:          1	MERGED:          0	TO_CACHE:     264815
L2C PQ	ACCESS:    3170814	FORWARD:          0	MERGED:          0	TO_CACHE:    3170814

L2C Instructions Evicting Data 87
L2C Translations Evicting Data 20159
L2C Data Evicting Data 1791630
L2C Instructions Evicting Instructions 0
L2C Translations Evicting Instructions 1
L2C Data Evicting Instructions 78
L2C Instructions Evicting Translations 2
L2C Translations Evicting Translations 339
L2C Data Evicting Translations 18774
L2C Dense regions hint from L2: 0
PSCL5 SPEC fills:          0  NON-SPEC fills:          0
PSCL5 Test counter :          0
PSCL5 Leapfrog:          0
PSCL5 MSHR merge:          0
PSCL5 TOTAL     ACCESS:          0  HIT:          0  MISS:          0  HIT %:       -nan  MISS %:       -nan   MPKI: 0
PSCL5 PREFETCH  REQUESTED:          0  ISSUED:          0  USEFUL:          0  USELESS:          0
PSCL5 USEFUL LOAD PREFETCHES:          0 PREFETCH ISSUED TO LOWER LEVEL:          0  ACCURACY: -nan
PSCL5 TIMELY PREFETCHES:          0 LATE PREFETCHES: 0 DROPPED PREFETCHES: 0
PSCL5 COMMIT LATE PREFETCHES: 0 MISSED OPPORTUNITY: 0 LATE IN PQ: 0 UNCOVERED: 0
PSCL5 COMMIT LATE MSHR PREFETCHES: 0
PSCL5 MPKI TOTAL: 0 MSHR LATE: 0 PQ LATE: 0 COMMIT LATE: 0 MISSED OPPORTUNITY: 0 UNCOVERED: 0
PSCL5 PREFETCHES SAME FILL-ORIGIN LEVEL: 0 DIFFERENT FILL-ORIGIN LEVEL: 0

PSCL4 SPEC fills:          0  NON-SPEC fills:          0
PSCL4 Test counter :          0
PSCL4 Leapfrog:          0
PSCL4 MSHR merge:          0
PSCL4 TOTAL     ACCESS:          0  HIT:          0  MISS:          0  HIT %:       -nan  MISS %:       -nan   MPKI: 0
PSCL4 PREFETCH  REQUESTED:          0  ISSUED:          0  USEFUL:          0  USELESS:          0
PSCL4 USEFUL LOAD PREFETCHES:          0 PREFETCH ISSUED TO LOWER LEVEL:          0  ACCURACY: -nan
PSCL4 TIMELY PREFETCHES:          0 LATE PREFETCHES: 0 DROPPED PREFETCHES: 0
PSCL4 COMMIT LATE PREFETCHES: 0 MISSED OPPORTUNITY: 0 LATE IN PQ: 0 UNCOVERED: 0
PSCL4 COMMIT LATE MSHR PREFETCHES: 0
PSCL4 MPKI TOTAL: 0 MSHR LATE: 0 PQ LATE: 0 COMMIT LATE: 0 MISSED OPPORTUNITY: 0 UNCOVERED: 0
PSCL4 PREFETCHES SAME FILL-ORIGIN LEVEL: 0 DIFFERENT FILL-ORIGIN LEVEL: 0

PSCL3 SPEC fills:          0  NON-SPEC fills:          0
PSCL3 Test counter :          0
PSCL3 Leapfrog:          0
PSCL3 MSHR merge:          0
PSCL3 TOTAL     ACCESS:          0  HIT:          0  MISS:          0  HIT %:       -nan  MISS %:       -nan   MPKI: 0
PSCL3 PREFETCH  REQUESTED:          0  ISSUED:          0  USEFUL:          0  USELESS:          0
PSCL3 USEFUL LOAD PREFETCHES:          0 PREFETCH ISSUED TO LOWER LEVEL:          0  ACCURACY: -nan
PSCL3 TIMELY PREFETCHES:          0 LATE PREFETCHES: 0 DROPPED PREFETCHES: 0
PSCL3 COMMIT LATE PREFETCHES: 0 MISSED OPPORTUNITY: 0 LATE IN PQ: 0 UNCOVERED: 0
PSCL3 COMMIT LATE MSHR PREFETCHES: 0
PSCL3 MPKI TOTAL: 0 MSHR LATE: 0 PQ LATE: 0 COMMIT LATE: 0 MISSED OPPORTUNITY: 0 UNCOVERED: 0
PSCL3 PREFETCHES SAME FILL-ORIGIN LEVEL: 0 DIFFERENT FILL-ORIGIN LEVEL: 0

PSCL2 SPEC fills:          0  NON-SPEC fills:          0
PSCL2 Test counter :          0
PSCL2 Leapfrog:          0
PSCL2 MSHR merge:          0
PSCL2 TOTAL     ACCESS:          0  HIT:          0  MISS:          0  HIT %:       -nan  MISS %:       -nan   MPKI: 0
PSCL2 PREFETCH  REQUESTED:          0  ISSUED:          0  USEFUL:          0  USELESS:          0
PSCL2 USEFUL LOAD PREFETCHES:          0 PREFETCH ISSUED TO LOWER LEVEL:          0  ACCURACY: -nan
PSCL2 TIMELY PREFETCHES:          0 LATE PREFETCHES: 0 DROPPED PREFETCHES: 0
PSCL2 COMMIT LATE PREFETCHES: 0 MISSED OPPORTUNITY: 0 LATE IN PQ: 0 UNCOVERED: 0
PSCL2 COMMIT LATE MSHR PREFETCHES: 0
PSCL2 MPKI TOTAL: 0 MSHR LATE: 0 PQ LATE: 0 COMMIT LATE: 0 MISSED OPPORTUNITY: 0 UNCOVERED: 0
PSCL2 PREFETCHES SAME FILL-ORIGIN LEVEL: 0 DIFFERENT FILL-ORIGIN LEVEL: 0

LLC SPEC fills:          0  NON-SPEC fills:      56536
LLC Test counter :          0
LLC Leapfrog:          0
LLC MSHR merge:          0
LLC TOTAL     ACCESS:    2169583  HIT:     145402  MISS:    2024181  HIT %:    6.70184  MISS %:    93.2982   MPKI: 10.1209
LLC LOAD      TOTAL       ACCESS:     183784  HIT:      22812  MISS:     160972  HIT %:    12.4124  MISS %:    87.5876   MPKI: 0.80486
LLC LOAD      NON_SPEC    ACCESS:      64432  HIT:       7807  MISS:      56625  HIT %:    12.1167  MISS %:    87.8833   MPKI: 0.283125
LLC LOAD      SPEC        ACCESS:     119352  HIT:      15005  MISS:     104347  HIT %:    12.5721  MISS %:    87.4279   MPKI: 0.521735
LLC RFO       NON_SPEC    ACCESS:       1543  HIT:         43  MISS:       1500  HIT %:    2.78678  MISS %:    97.2132   MPKI: 0.0075
LLC PREFETCH  NON_SPEC    ACCESS:    1744528  HIT:       9467  MISS:    1735061  HIT %:   0.542668  MISS %:    99.4573   MPKI: 8.6753
LLC WRITEBACK NON_SPEC    ACCESS:      16040  HIT:      12764  MISS:       3276  HIT %:    79.5761  MISS %:    20.4239   MPKI: 0.01638
LLC CLEAN_EVICTION NON_SPEC    ACCESS:     203115  HIT:      98357  MISS:     104758  HIT %:    48.4243  MISS %:    51.5757   MPKI: 0.52379
LLC COMMIT LOAD NON_SPEC    ACCESS:         74  HIT:         24  MISS:         50  HIT %:    32.4324  MISS %:    67.5676   MPKI: 0.00025
LLC LOAD TRANSLATION NON_SPEC    ACCESS:      20491  HIT:       1935  MISS:      18556  HIT %:    9.44317  MISS %:    90.5568   MPKI: 0.09278
LLC TRANSLATION FROM L1D PREFETCHER NON_SPEC    ACCESS:          8  HIT:          0  MISS:          8  HIT %:          0  MISS %:        100   MPKI: 4e-05
LLC PREFETCH  REQUESTED:          0  ISSUED:          0  USEFUL:        673  USELESS:    1734416
LLC USEFUL LOAD PREFETCHES:        673 PREFETCH ISSUED TO LOWER LEVEL:    1735061  ACCURACY: 0.0387883
LLC TIMELY PREFETCHES:        673 LATE PREFETCHES: 0 DROPPED PREFETCHES: 0
LLC COMMIT LATE PREFETCHES: 0 MISSED OPPORTUNITY: 0 LATE IN PQ: 0 UNCOVERED: 0
LLC COMMIT LATE MSHR PREFETCHES: 0
LLC MPKI TOTAL: 0.80486 MSHR LATE: 0 PQ LATE: 0 COMMIT LATE: 0 MISSED OPPORTUNITY: 0 UNCOVERED: 0
LLC PREFETCHES SAME FILL-ORIGIN LEVEL: 0 DIFFERENT FILL-ORIGIN LEVEL: 0
LLC AVERAGE MISS LATENCY: 87.6761 cycles
LLC AVERAGE MISS LATENCY LOAD: 115.765 cycles
LLC AVERAGE MISS LATENCY PREFETCH: 89.7051 cycles
LLC AVERAGE MSHR OCCUPANCY: 0.182516
LLC MSHR FULL: 0
LLC RQ	ACCESS:     205906	FORWARD:          0	MERGED:          0	TO_CACHE:     205900
LLC WQ	ACCESS:     219155	FORWARD:          6	MERGED:          0	TO_CACHE:     219155
LLC PQ	ACCESS:    1744528	FORWARD:          0	MERGED:          0	TO_CACHE:    1744528

LLC Dense regions hint to LLC: 0

RAW hits: 76557
Loads Generated: 52931823
Loads sent to L1D: 52855265
Stores Generated: 21939796
Stores sent to L1D: 21939797
Major fault: 0 Minor fault: 9448
Allocated PAGES: 9448
Total Load insts: 65972007
Total Non-spec loads: 18807013
Percentage of speculative loads: 71.4924

LeapFrogging counter: 0
Commit hits: 17395001 miss: 20014985
Commit hit %: 46.4983 miss %: 53.5017
Commits not translated: 0
Loads retired: 635197
Stores retired: 21939797
Cache fills: 635197
L1D response latency: 61.5026 cycles
Load retirement latency: 108.828 cycles
OOO test counter: 0
Discarded buffer inserts: 17395001 hits: 7691 hit %: 0.0442139
Filter prediction accuracy: 99.8577
Speculative prefetch buffer size: 0
CPU 0 L1D PC-based stride prefetcher final stats
Degree: 3

DRAM Statistics
 CHANNEL 0
 RQ ROW_BUFFER_HIT:    1472856  ROW_BUFFER_MISS:     443291
 DBUS_CONGESTED:       2852
 WQ ROW_BUFFER_HIT:      53785  ROW_BUFFER_MISS:     150662  FULL:          0

 AVG_CONGESTED_CYCLE: 4
 All warmup complete: 2
Channel 0 Bank busy for read cycles: 0
Channel 0 Bank busy for write cycles: 0
Channel 0
Rank 0
0banks busy for read cycles: 305898988
0banks busy for write cycles: 119711
1banks busy for read cycles: 88805162
1banks busy for write cycles: 19508111
2banks busy for read cycles: 10498923
2banks busy for write cycles: 3674642
3banks busy for read cycles: 5065833
3banks busy for write cycles: 1020912
4banks busy for read cycles: 3585090
4banks busy for write cycles: 466503
5banks busy for read cycles: 139372
5banks busy for write cycles: 330447
6banks busy for read cycles: 13809
6banks busy for write cycles: 314669
7banks busy for read cycles: 2773
7banks busy for write cycles: 427549
8banks busy for read cycles: 1147
8banks busy for write cycles: 911125

CPU 0 Branch Prediction Accuracy: 99.9023% MPKI: 0.234695 Average ROB Occupancy at Mispredict: 79.5596
Branch types
NOT_BRANCH: 151969688 75.9848%
BRANCH_DIRECT_JUMP: 4848253 2.42413%
BRANCH_INDIRECT: 0 0%
BRANCH_CONDITIONAL: 38286306 19.1432%
BRANCH_DIRECT_CALL: 2447841 1.22392%
BRANCH_INDIRECT_CALL: 26 1.3e-05%
BRANCH_RETURN: 2447866 1.22393%
BRANCH_OTHER: 0 0%

DRAM PAGES: 1048576
Allocated PAGES: 9448
