
*** ChampSim Multicore Out-of-Order Simulator ***

Warmup Instructions: 50000000
Simulation Instructions: 200000000
Number of CPUs: 1
LLC sets: 2048
LLC ways: 16
L0D sets: 16
L0D ways: 2
ROB size: 352
LQ size: 128
SQ size: 72
Secure Berti: OFF
Berti: OFF
Berti Fill: OFF
On commit prefetching: OFF
Hit-based filter: ON
Time-guarding: ON
Free-slotting: ON
Leap-frogging: ON
Train prefetcher on L0D bypass: OFF
No translation penalty for prefetchers: OFF
Prefetch to L0D only: OFF
Prefetch to L1D only: OFF
Clean evictions: ON
Commit loads: ON
Commit write: ON
Fill commit loads to L2C, LLC: ON
DRAM IO FREQUENCY: 6400
ROB SIZE: 352
Off-chip DRAM Size: 4096 MB Channels: 1 Width: 64-bit Data Rate: 6400 MT/s
CPU 0 runs /home/sumon/secure_berti/GhostMinion/../../traces/spec/603.bwaves_s-1740B.champsimtrace.xz
.xz
BTB has LRU replacement policy
ITLB has LRU replacement policy
DTLB has LRU replacement policy
STLB has LRU replacement policy
L1I has LRU replacement policy
L0D has LRU replacement policy
CPU 0 L1D IP-based stride prefetcher
L1D has LRU replacement policy
L2C has LRU replacement policy
LLC has LRU replacement policy
Heartbeat CPU 0 instructions: 10000000 cycles: 3565304 heartbeat IPC: 2.80481 cumulative IPC: 2.80481 (Simulation time: 0 hr 0 min 39 sec) 
Heartbeat CPU 0 instructions: 20000002 cycles: 7129538 heartbeat IPC: 2.80565 cumulative IPC: 2.80523 (Simulation time: 0 hr 1 min 17 sec) 
Heartbeat CPU 0 instructions: 30000000 cycles: 10694909 heartbeat IPC: 2.80476 cumulative IPC: 2.80507 (Simulation time: 0 hr 1 min 56 sec) 
Heartbeat CPU 0 instructions: 40000001 cycles: 14259934 heartbeat IPC: 2.80503 cumulative IPC: 2.80506 (Simulation time: 0 hr 2 min 35 sec) 
Heartbeat CPU 0 instructions: 50000003 cycles: 17825158 heartbeat IPC: 2.80487 cumulative IPC: 2.80502 (Simulation time: 0 hr 3 min 15 sec) 

Warmup complete CPU 0 instructions: 50000003 cycles: 17825158 (Simulation time: 0 hr 3 min 15 sec) 

Heartbeat CPU 0 instructions: 60000000 cycles: 27583024 heartbeat IPC: 1.02481 cumulative IPC: 1.02481 (Simulation time: 0 hr 4 min 0 sec) 
Heartbeat CPU 0 instructions: 70000000 cycles: 37343711 heartbeat IPC: 1.02452 cumulative IPC: 1.02467 (Simulation time: 0 hr 4 min 46 sec) 
Heartbeat CPU 0 instructions: 80000002 cycles: 47091631 heartbeat IPC: 1.02586 cumulative IPC: 1.02506 (Simulation time: 0 hr 5 min 32 sec) 
Heartbeat CPU 0 instructions: 90000001 cycles: 56863390 heartbeat IPC: 1.02336 cumulative IPC: 1.02464 (Simulation time: 0 hr 6 min 18 sec) 
Heartbeat CPU 0 instructions: 100000002 cycles: 66621730 heartbeat IPC: 1.02476 cumulative IPC: 1.02466 (Simulation time: 0 hr 7 min 4 sec) 
Heartbeat CPU 0 instructions: 110000000 cycles: 76362934 heartbeat IPC: 1.02657 cumulative IPC: 1.02498 (Simulation time: 0 hr 7 min 51 sec) 
Heartbeat CPU 0 instructions: 120000002 cycles: 86120471 heartbeat IPC: 1.02485 cumulative IPC: 1.02496 (Simulation time: 0 hr 8 min 39 sec) 
Heartbeat CPU 0 instructions: 130000000 cycles: 95889677 heartbeat IPC: 1.02362 cumulative IPC: 1.02479 (Simulation time: 0 hr 9 min 27 sec) 
Heartbeat CPU 0 instructions: 140000003 cycles: 105647094 heartbeat IPC: 1.02486 cumulative IPC: 1.0248 (Simulation time: 0 hr 10 min 14 sec) 
Heartbeat CPU 0 instructions: 150000002 cycles: 115405950 heartbeat IPC: 1.02471 cumulative IPC: 1.02479 (Simulation time: 0 hr 11 min 2 sec) 
Heartbeat CPU 0 instructions: 160000003 cycles: 125171200 heartbeat IPC: 1.02404 cumulative IPC: 1.02472 (Simulation time: 0 hr 11 min 49 sec) 
Heartbeat CPU 0 instructions: 170000000 cycles: 134928549 heartbeat IPC: 1.02487 cumulative IPC: 1.02474 (Simulation time: 0 hr 12 min 35 sec) 
Heartbeat CPU 0 instructions: 180000001 cycles: 144685209 heartbeat IPC: 1.02494 cumulative IPC: 1.02475 (Simulation time: 0 hr 13 min 18 sec) 
Heartbeat CPU 0 instructions: 190000000 cycles: 154439683 heartbeat IPC: 1.02517 cumulative IPC: 1.02478 (Simulation time: 0 hr 13 min 59 sec) 
Heartbeat CPU 0 instructions: 200000001 cycles: 164189394 heartbeat IPC: 1.02567 cumulative IPC: 1.02484 (Simulation time: 0 hr 14 min 41 sec) 
Heartbeat CPU 0 instructions: 210000003 cycles: 173938126 heartbeat IPC: 1.02577 cumulative IPC: 1.0249 (Simulation time: 0 hr 15 min 21 sec) 
Heartbeat CPU 0 instructions: 220000000 cycles: 183686858 heartbeat IPC: 1.02577 cumulative IPC: 1.02495 (Simulation time: 0 hr 16 min 0 sec) 
Heartbeat CPU 0 instructions: 230000000 cycles: 193444360 heartbeat IPC: 1.02485 cumulative IPC: 1.02494 (Simulation time: 0 hr 16 min 36 sec) 
Heartbeat CPU 0 instructions: 240000000 cycles: 203199302 heartbeat IPC: 1.02512 cumulative IPC: 1.02495 (Simulation time: 0 hr 17 min 12 sec) 
Heartbeat CPU 0 instructions: 250000000 cycles: 212954360 heartbeat IPC: 1.02511 cumulative IPC: 1.02496 (Simulation time: 0 hr 17 min 48 sec) 
Finished CPU 0 instructions: 200000001 cycles: 195129203 cumulative IPC: 1.02496 (Simulation time: 0 hr 17 min 48 sec) 
 Instruction ID: 250000043

ChampSim completed all CPUs

Region of Interest Statistics

CPU 0 cumulative IPC: 1.02496 instructions: 200000001 cycles: 195129203
ITLB SPEC fills:          0  NON-SPEC fills:          0
ITLB Test counter :          0
ITLB Leapfrog:          0
ITLB MSHR merge:          0
ITLB TOTAL     ACCESS:   25352800  HIT:   25352800  MISS:          0  HIT %:        100  MISS %:          0   MPKI: 0
ITLB LOAD TRANSLATION NON_SPEC    ACCESS:   25352800  HIT:   25352800  MISS:          0  HIT %:        100  MISS %:          0   MPKI: 0
ITLB PREFETCH  REQUESTED:          0  ISSUED:          0  USEFUL:          0  USELESS:          0
ITLB USEFUL LOAD PREFETCHES:          0 PREFETCH ISSUED TO LOWER LEVEL:          0  ACCURACY: -nan
ITLB TIMELY PREFETCHES:          0 LATE PREFETCHES: 0 DROPPED PREFETCHES: 0
ITLB COMMIT LATE PREFETCHES: 0 MISSED OPPORTUNITY: 0 LATE IN PQ: 0 UNCOVERED: 0
ITLB COMMIT LATE MSHR PREFETCHES: 0
ITLB MPKI TOTAL: 0 MSHR LATE: 0 PQ LATE: 0 COMMIT LATE: 0 MISSED OPPORTUNITY: 0 UNCOVERED: 0
ITLB PREFETCHES SAME FILL-ORIGIN LEVEL: 0 DIFFERENT FILL-ORIGIN LEVEL: 0
ITLB AVERAGE MISS LATENCY: -nan cycles
ITLB AVERAGE MISS LATENCY LOAD: -nan cycles
ITLB AVERAGE MISS LATENCY PREFETCH: -nan cycles
ITLB AVERAGE MSHR OCCUPANCY: 0
ITLB MSHR FULL: 0
ITLB RQ	ACCESS:   34396341	FORWARD:          0	MERGED:    9043542	TO_CACHE:   25352799

DTLB SPEC fills:          0  NON-SPEC fills:          0
DTLB Test counter :          0
DTLB Leapfrog:          0
DTLB MSHR merge:          0
DTLB TOTAL     ACCESS:   75150967  HIT:   74732207  MISS:     418760  HIT %:    99.4428  MISS %:   0.557225   MPKI: 2.0938
DTLB LOAD TRANSLATION NON_SPEC    ACCESS:   75150967  HIT:   74732207  MISS:     418760  HIT %:    99.4428  MISS %:   0.557225   MPKI: 2.0938
DTLB PREFETCH  REQUESTED:          0  ISSUED:          0  USEFUL:          0  USELESS:          0
DTLB USEFUL LOAD PREFETCHES:          0 PREFETCH ISSUED TO LOWER LEVEL:          0  ACCURACY: -nan
DTLB TIMELY PREFETCHES:          0 LATE PREFETCHES: 0 DROPPED PREFETCHES: 0
DTLB COMMIT LATE PREFETCHES: 0 MISSED OPPORTUNITY: 0 LATE IN PQ: 0 UNCOVERED: 0
DTLB COMMIT LATE MSHR PREFETCHES: 0
DTLB MPKI TOTAL: 0 MSHR LATE: 0 PQ LATE: 0 COMMIT LATE: 0 MISSED OPPORTUNITY: 0 UNCOVERED: 0
DTLB PREFETCHES SAME FILL-ORIGIN LEVEL: 0 DIFFERENT FILL-ORIGIN LEVEL: 0
DTLB AVERAGE MISS LATENCY: 102.327 cycles
DTLB AVERAGE MISS LATENCY LOAD: -nan cycles
DTLB AVERAGE MISS LATENCY PREFETCH: -nan cycles
DTLB AVERAGE MSHR OCCUPANCY: 0.0334688
DTLB MSHR FULL: 5.7696e-06
DTLB RQ	ACCESS:   87463304	FORWARD:          0	MERGED:   12241459	TO_CACHE:   75221845

STLB SPEC fills:          0  NON-SPEC fills:          0
STLB Test counter :          0
STLB Leapfrog:          0
STLB MSHR merge:          0
STLB TOTAL     ACCESS:   10095331  HIT:   10035948  MISS:      59383  HIT %:    99.4118  MISS %:   0.588222   MPKI: 0.296915
STLB LOAD TRANSLATION NON_SPEC    ACCESS:     418760  HIT:     359377  MISS:      59383  HIT %:    85.8193  MISS %:    14.1807   MPKI: 0.296915
STLB TRANSLATION FROM L1D PREFETCHER NON_SPEC    ACCESS:    9676571  HIT:    9676571  MISS:          0  HIT %:        100  MISS %:          0   MPKI: 0
STLB PREFETCH  REQUESTED:          0  ISSUED:          0  USEFUL:          0  USELESS:          0
STLB USEFUL LOAD PREFETCHES:          0 PREFETCH ISSUED TO LOWER LEVEL:          0  ACCURACY: -nan
STLB TIMELY PREFETCHES:          0 LATE PREFETCHES: 0 DROPPED PREFETCHES: 0
STLB COMMIT LATE PREFETCHES: 0 MISSED OPPORTUNITY: 0 LATE IN PQ: 0 UNCOVERED: 0
STLB COMMIT LATE MSHR PREFETCHES: 0
STLB MPKI TOTAL: 0 MSHR LATE: 0 PQ LATE: 0 COMMIT LATE: 0 MISSED OPPORTUNITY: 0 UNCOVERED: 0
STLB PREFETCHES SAME FILL-ORIGIN LEVEL: 0 DIFFERENT FILL-ORIGIN LEVEL: 0
STLB AVERAGE MISS LATENCY: 657.593 cycles
STLB AVERAGE MISS LATENCY LOAD: -nan cycles
STLB AVERAGE MISS LATENCY PREFETCH: -nan cycles
STLB AVERAGE MSHR OCCUPANCY: 0.0346749
STLB MSHR FULL: 0
STLB RQ	ACCESS:   28135512	FORWARD:          0	MERGED:   18040181	TO_CACHE:   10095331

STLB Hit, L1D data hit: 0
STLB Hit, L2C data hit: 0
STLB Hit, LLC data hit: 0
STLB Hit, LLC data miss: 0
STLB STLB hints to L2: 0
L0D SPEC fills:   50464997  NON-SPEC fills:          0
L0D TimeGuard Request with older TS:    1406862 Restricted eviction:   12025577 read:     151863
L0D Test counter :          0
L0D Leapfrog:          0
L0D MSHR merge:    2252574
L0D TOTAL     ACCESS:   73943909  HIT:    5568736  MISS:   68375173  HIT %:    7.53103  MISS %:     92.469   MPKI: 341.876
L0D LOAD      TOTAL       ACCESS:   73943909  HIT:    5568736  MISS:   68375173  HIT %:    7.53103  MISS %:     92.469   MPKI: 341.876
L0D LOAD      NON_SPEC    ACCESS:    6207282  HIT:     321315  MISS:    5885967  HIT %:    5.17642  MISS %:    94.8236   MPKI: 29.4298
L0D LOAD      SPEC        ACCESS:   67736627  HIT:    5247421  MISS:   62489206  HIT %:     7.7468  MISS %:    92.2532   MPKI: 312.446
L0D PREFETCH  REQUESTED:          0  ISSUED:          0  USEFUL:          0  USELESS:          0
L0D USEFUL LOAD PREFETCHES:          0 PREFETCH ISSUED TO LOWER LEVEL:          0  ACCURACY: -nan
L0D TIMELY PREFETCHES:          0 LATE PREFETCHES: 0 DROPPED PREFETCHES: 0
L0D COMMIT LATE PREFETCHES: 0 MISSED OPPORTUNITY: 0 LATE IN PQ: 0 UNCOVERED: 0
L0D COMMIT LATE MSHR PREFETCHES: 0
L0D MPKI TOTAL: 353.139 MSHR LATE: 0 PQ LATE: 0 COMMIT LATE: 0 MISSED OPPORTUNITY: 0 UNCOVERED: 0
L0D PREFETCHES SAME FILL-ORIGIN LEVEL: 0 DIFFERENT FILL-ORIGIN LEVEL: 0
L0D AVERAGE MISS LATENCY: 5.39752 cycles
L0D AVERAGE MISS LATENCY LOAD: 5.39752 cycles
L0D AVERAGE MISS LATENCY PREFETCH: -nan cycles
L0D AVERAGE MSHR OCCUPANCY: 1.58953
L0D MSHR FULL: 0.00437587
L0D RQ	ACCESS:   85562746	FORWARD:          0	MERGED:    9366267	TO_CACHE:   76196479
L0D WQ	ACCESS:   11266825	FORWARD:          0	MERGED:          0	TO_CACHE:   11266825

L1D SPEC fills:          0  NON-SPEC fills:       1190
L1D Test counter :          0
L1D Leapfrog:          0
L1D MSHR merge:      25114
L1D TOTAL     ACCESS:  100939773  HIT:   96816057  MISS:    4123716  HIT %:    95.9147  MISS %:    4.08532   MPKI: 20.6186
L1D LOAD      TOTAL       ACCESS:   68355133  HIT:   68229096  MISS:     126037  HIT %:    99.8156  MISS %:   0.184386   MPKI: 0.630185
L1D LOAD      NON_SPEC    ACCESS:    5885822  HIT:    5884632  MISS:       1190  HIT %:    99.9798  MISS %:  0.0202181   MPKI: 0.00595
L1D LOAD      SPEC        ACCESS:   62469311  HIT:   62344464  MISS:     124847  HIT %:    99.8001  MISS %:   0.199853   MPKI: 0.624235
L1D RFO       NON_SPEC    ACCESS:   11175753  HIT:   11078304  MISS:      97449  HIT %:     99.128  MISS %:   0.871968   MPKI: 0.487245
L1D PREFETCH  NON_SPEC    ACCESS:   21226603  HIT:   17450871  MISS:    3775732  HIT %:    82.2123  MISS %:    17.7877   MPKI: 18.8787
L1D COMMIT LOAD NON_SPEC    ACCESS:      64240  HIT:      40302  MISS:      23938  HIT %:    62.7366  MISS %:    37.2634   MPKI: 0.11969
L1D COMMIT WRITE NON_SPEC    ACCESS:     118044  HIT:      17484  MISS:     100560  HIT %:    14.8114  MISS %:    85.1886   MPKI: 0.5028
L1D PREFETCH  REQUESTED:   29258145  ISSUED:   27820093  USEFUL:    3775671  USELESS:         69
L1D USEFUL LOAD PREFETCHES:    3775671 PREFETCH ISSUED TO LOWER LEVEL:    6240038  ACCURACY: 60.5072
L1D TIMELY PREFETCHES:    3775671 LATE PREFETCHES: 5073 DROPPED PREFETCHES: 0
L1D COMMIT LATE PREFETCHES: 0 MISSED OPPORTUNITY: 0 LATE IN PQ: 0 UNCOVERED: 0
L1D COMMIT LATE MSHR PREFETCHES: 0
L1D MPKI TOTAL: 0.73039 MSHR LATE: 0.025365 PQ LATE: 0 COMMIT LATE: 0 MISSED OPPORTUNITY: 0 UNCOVERED: 0
L1D PREFETCHES SAME FILL-ORIGIN LEVEL: 3780805 DIFFERENT FILL-ORIGIN LEVEL: 2459233
L1D AVERAGE MISS LATENCY: 199.853 cycles
L1D AVERAGE MISS LATENCY LOAD: 123.992 cycles
L1D AVERAGE MISS LATENCY PREFETCH: 207.333 cycles
L1D AVERAGE MSHR OCCUPANCY: 4.24856
L1D MSHR FULL: 0.00113693
L1D RQ	ACCESS:   68447270	FORWARD:          0	MERGED:         83	TO_CACHE:   68447187
L1D WQ	ACCESS:   11384869	FORWARD:          0	MERGED:        209	TO_CACHE:   11384660
L1D PQ	ACCESS:   27820093	FORWARD:          0	MERGED:     103341	TO_CACHE:   27716752

L1D UNIQUE REGIONS ACCESSED: 0
L1D REGIONS CONFLICTS: 0
L1D Cross Page Prefetch Requests: 0
L1D Same Page Prefetch Requests: 34924568
L1D ROI Sum of L1D PQ occupancy: 393913450
L1D PREFETCHES PUSHED FROM L2C: 0
L1I SPEC fills:          0  NON-SPEC fills:          0
L1I Test counter :          0
L1I Leapfrog:          0
L1I MSHR merge:          0
L1I TOTAL     ACCESS:   34396340  HIT:   34396340  MISS:          0  HIT %:        100  MISS %:          0   MPKI: 0
L1I LOAD      TOTAL       ACCESS:   34396340  HIT:   34396340  MISS:          0  HIT %:        100  MISS %:          0   MPKI: 0
L1I LOAD      NON_SPEC    ACCESS:   34396340  HIT:   34396340  MISS:          0  HIT %:        100  MISS %:          0   MPKI: 0
L1I PREFETCH  REQUESTED:          0  ISSUED:          0  USEFUL:          0  USELESS:          0
L1I USEFUL LOAD PREFETCHES:          0 PREFETCH ISSUED TO LOWER LEVEL:          0  ACCURACY: -nan
L1I TIMELY PREFETCHES:          0 LATE PREFETCHES: 0 DROPPED PREFETCHES: 0
L1I COMMIT LATE PREFETCHES: 0 MISSED OPPORTUNITY: 0 LATE IN PQ: 0 UNCOVERED: 0
L1I COMMIT LATE MSHR PREFETCHES: 0
L1I MPKI TOTAL: 0 MSHR LATE: 0 PQ LATE: 0 COMMIT LATE: 0 MISSED OPPORTUNITY: 0 UNCOVERED: 0
L1I PREFETCHES SAME FILL-ORIGIN LEVEL: 0 DIFFERENT FILL-ORIGIN LEVEL: 0
L1I AVERAGE MISS LATENCY: -nan cycles
L1I AVERAGE MISS LATENCY LOAD: -nan cycles
L1I AVERAGE MISS LATENCY PREFETCH: -nan cycles
L1I AVERAGE MSHR OCCUPANCY: 0
L1I MSHR FULL: 0
L1I RQ	ACCESS:   45817406	FORWARD:          0	MERGED:   11421065	TO_CACHE:   34396341

BTB SPEC fills:          0  NON-SPEC fills:          0
BTB Test counter :          0
BTB Leapfrog:          0
BTB MSHR merge:          0
BTB TOTAL     ACCESS:    4834901  HIT:    4834896  MISS:          5  HIT %:    99.9999  MISS %: 0.000103415   MPKI: 2.5e-05
BTB BRANCH_DIRECT_JUMP	ACCESS:          0  HIT:          0  MISS:          0
BTB BRANCH_INDIRECT	ACCESS:          0  HIT:          0  MISS:          0
BTB BRANCH_CONDITIONAL	ACCESS:    4834901  HIT:    4834896  MISS:          5
BTB BRANCH_DIRECT_CALL	ACCESS:          0  HIT:          0  MISS:          0
BTB BRANCH_INDIRECT_CALL	ACCESS:          0  HIT:          0  MISS:          0
BTB BRANCH_RETURN	ACCESS:          0  HIT:          0  MISS:          0
BTB BRANCH_OTHER ACCESS:          0  HIT:          0  MISS:          0

L2C SPEC fills:          0  NON-SPEC fills:        430
L2C Test counter :          0
L2C Leapfrog:          0
L2C MSHR merge:        419
L2C TOTAL     ACCESS:    5382171  HIT:    1487390  MISS:    3894781  HIT %:    27.6355  MISS %:    72.3645   MPKI: 19.4739
L2C LOAD      TOTAL       ACCESS:     120963  HIT:      34300  MISS:      86663  HIT %:    28.3558  MISS %:    71.6442   MPKI: 0.433315
L2C LOAD      NON_SPEC    ACCESS:       1161  HIT:        731  MISS:        430  HIT %:     62.963  MISS %:     37.037   MPKI: 0.00215
L2C LOAD      SPEC        ACCESS:     119802  HIT:      33569  MISS:      86233  HIT %:    28.0204  MISS %:    71.9796   MPKI: 0.431165
L2C RFO       NON_SPEC    ACCESS:      97449  HIT:          0  MISS:      97449  HIT %:          0  MISS %:        100   MPKI: 0.487245
L2C PREFETCH  NON_SPEC    ACCESS:    4659479  HIT:    1042627  MISS:    3616852  HIT %:    22.3765  MISS %:    77.6235   MPKI: 18.0843
L2C WRITEBACK NON_SPEC    ACCESS:      97501  HIT:      97501  MISS:          0  HIT %:        100  MISS %:          0   MPKI: 0
L2C CLEAN_EVICTION NON_SPEC    ACCESS:      86037  HIT:      21908  MISS:      64129  HIT %:    25.4635  MISS %:    74.5365   MPKI: 0.320645
L2C COMMIT LOAD NON_SPEC    ACCESS:      23938  HIT:       1687  MISS:      22251  HIT %:    7.04737  MISS %:    92.9526   MPKI: 0.111255
L2C LOAD TRANSLATION NON_SPEC    ACCESS:     296804  HIT:     289367  MISS:       7437  HIT %:    97.4943  MISS %:    2.50569   MPKI: 0.037185
L2C PREFETCH  REQUESTED:          0  ISSUED:          0  USEFUL:      27647  USELESS:    3589284
L2C USEFUL LOAD PREFETCHES:      27647 PREFETCH ISSUED TO LOWER LEVEL:    3617271  ACCURACY: 0.764305
L2C TIMELY PREFETCHES:      27647 LATE PREFETCHES: 419 DROPPED PREFETCHES: 0
L2C COMMIT LATE PREFETCHES: 0 MISSED OPPORTUNITY: 0 LATE IN PQ: 0 UNCOVERED: 0
L2C COMMIT LATE MSHR PREFETCHES: 0
L2C MPKI TOTAL: 0.433315 MSHR LATE: 0.002095 PQ LATE: 0 COMMIT LATE: 0 MISSED OPPORTUNITY: 0 UNCOVERED: 0
L2C PREFETCHES SAME FILL-ORIGIN LEVEL: 1594643 DIFFERENT FILL-ORIGIN LEVEL: 0
L2C AVERAGE MISS LATENCY: 304.349 cycles
L2C AVERAGE MISS LATENCY LOAD: 156.823 cycles
L2C AVERAGE MISS LATENCY PREFETCH: 316.909 cycles
L2C AVERAGE MSHR OCCUPANCY: 3.88725
L2C MSHR FULL: 0
L2C RQ	ACCESS:     539155	FORWARD:          0	MERGED:          0	TO_CACHE:     539154
L2C WQ	ACCESS:     183538	FORWARD:          1	MERGED:          0	TO_CACHE:     183538
L2C PQ	ACCESS:    6240038	FORWARD:          0	MERGED:          0	TO_CACHE:    6240038

L2C Instructions Evicting Data 0
L2C Translations Evicting Data 7431
L2C Data Evicting Data 3729686
L2C Instructions Evicting Instructions 0
L2C Translations Evicting Instructions 0
L2C Data Evicting Instructions 0
L2C Instructions Evicting Translations 0
L2C Translations Evicting Translations 6
L2C Data Evicting Translations 7296
L2C Dense regions hint from L2: 0
PSCL5 SPEC fills:          0  NON-SPEC fills:          0
PSCL5 Test counter :          0
PSCL5 Leapfrog:          0
PSCL5 MSHR merge:          0
PSCL5 TOTAL     ACCESS:          0  HIT:          0  MISS:          0  HIT %:       -nan  MISS %:       -nan   MPKI: 0
PSCL5 PREFETCH  REQUESTED:          0  ISSUED:          0  USEFUL:          0  USELESS:          0
PSCL5 USEFUL LOAD PREFETCHES:          0 PREFETCH ISSUED TO LOWER LEVEL:          0  ACCURACY: -nan
PSCL5 TIMELY PREFETCHES:          0 LATE PREFETCHES: 0 DROPPED PREFETCHES: 0
PSCL5 COMMIT LATE PREFETCHES: 0 MISSED OPPORTUNITY: 0 LATE IN PQ: 0 UNCOVERED: 0
PSCL5 COMMIT LATE MSHR PREFETCHES: 0
PSCL5 MPKI TOTAL: 0 MSHR LATE: 0 PQ LATE: 0 COMMIT LATE: 0 MISSED OPPORTUNITY: 0 UNCOVERED: 0
PSCL5 PREFETCHES SAME FILL-ORIGIN LEVEL: 0 DIFFERENT FILL-ORIGIN LEVEL: 0

PSCL4 SPEC fills:          0  NON-SPEC fills:          0
PSCL4 Test counter :          0
PSCL4 Leapfrog:          0
PSCL4 MSHR merge:          0
PSCL4 TOTAL     ACCESS:          0  HIT:          0  MISS:          0  HIT %:       -nan  MISS %:       -nan   MPKI: 0
PSCL4 PREFETCH  REQUESTED:          0  ISSUED:          0  USEFUL:          0  USELESS:          0
PSCL4 USEFUL LOAD PREFETCHES:          0 PREFETCH ISSUED TO LOWER LEVEL:          0  ACCURACY: -nan
PSCL4 TIMELY PREFETCHES:          0 LATE PREFETCHES: 0 DROPPED PREFETCHES: 0
PSCL4 COMMIT LATE PREFETCHES: 0 MISSED OPPORTUNITY: 0 LATE IN PQ: 0 UNCOVERED: 0
PSCL4 COMMIT LATE MSHR PREFETCHES: 0
PSCL4 MPKI TOTAL: 0 MSHR LATE: 0 PQ LATE: 0 COMMIT LATE: 0 MISSED OPPORTUNITY: 0 UNCOVERED: 0
PSCL4 PREFETCHES SAME FILL-ORIGIN LEVEL: 0 DIFFERENT FILL-ORIGIN LEVEL: 0

PSCL3 SPEC fills:          0  NON-SPEC fills:          0
PSCL3 Test counter :          0
PSCL3 Leapfrog:          0
PSCL3 MSHR merge:          0
PSCL3 TOTAL     ACCESS:          0  HIT:          0  MISS:          0  HIT %:       -nan  MISS %:       -nan   MPKI: 0
PSCL3 PREFETCH  REQUESTED:          0  ISSUED:          0  USEFUL:          0  USELESS:          0
PSCL3 USEFUL LOAD PREFETCHES:          0 PREFETCH ISSUED TO LOWER LEVEL:          0  ACCURACY: -nan
PSCL3 TIMELY PREFETCHES:          0 LATE PREFETCHES: 0 DROPPED PREFETCHES: 0
PSCL3 COMMIT LATE PREFETCHES: 0 MISSED OPPORTUNITY: 0 LATE IN PQ: 0 UNCOVERED: 0
PSCL3 COMMIT LATE MSHR PREFETCHES: 0
PSCL3 MPKI TOTAL: 0 MSHR LATE: 0 PQ LATE: 0 COMMIT LATE: 0 MISSED OPPORTUNITY: 0 UNCOVERED: 0
PSCL3 PREFETCHES SAME FILL-ORIGIN LEVEL: 0 DIFFERENT FILL-ORIGIN LEVEL: 0

PSCL2 SPEC fills:          0  NON-SPEC fills:          0
PSCL2 Test counter :          0
PSCL2 Leapfrog:          0
PSCL2 MSHR merge:          0
PSCL2 TOTAL     ACCESS:          0  HIT:          0  MISS:          0  HIT %:       -nan  MISS %:       -nan   MPKI: 0
PSCL2 PREFETCH  REQUESTED:          0  ISSUED:          0  USEFUL:          0  USELESS:          0
PSCL2 USEFUL LOAD PREFETCHES:          0 PREFETCH ISSUED TO LOWER LEVEL:          0  ACCURACY: -nan
PSCL2 TIMELY PREFETCHES:          0 LATE PREFETCHES: 0 DROPPED PREFETCHES: 0
PSCL2 COMMIT LATE PREFETCHES: 0 MISSED OPPORTUNITY: 0 LATE IN PQ: 0 UNCOVERED: 0
PSCL2 COMMIT LATE MSHR PREFETCHES: 0
PSCL2 MPKI TOTAL: 0 MSHR LATE: 0 PQ LATE: 0 COMMIT LATE: 0 MISSED OPPORTUNITY: 0 UNCOVERED: 0
PSCL2 PREFETCHES SAME FILL-ORIGIN LEVEL: 0 DIFFERENT FILL-ORIGIN LEVEL: 0

LLC SPEC fills:          0  NON-SPEC fills:        430
LLC Test counter :          0
LLC Leapfrog:          0
LLC MSHR merge:          0
LLC TOTAL     ACCESS:    4012445  HIT:     119074  MISS:    3893371  HIT %:    2.96762  MISS %:    97.0324   MPKI: 19.4669
LLC LOAD      TOTAL       ACCESS:      86244  HIT:        399  MISS:      85845  HIT %:   0.462641  MISS %:    99.5374   MPKI: 0.429225
LLC LOAD      NON_SPEC    ACCESS:        430  HIT:          0  MISS:        430  HIT %:          0  MISS %:        100   MPKI: 0.00215
LLC LOAD      SPEC        ACCESS:      85814  HIT:        399  MISS:      85415  HIT %:   0.464959  MISS %:     99.535   MPKI: 0.427075
LLC RFO       NON_SPEC    ACCESS:      97449  HIT:          0  MISS:      97449  HIT %:          0  MISS %:        100   MPKI: 0.487245
LLC PREFETCH  NON_SPEC    ACCESS:    3617271  HIT:          0  MISS:    3617271  HIT %:          0  MISS %:        100   MPKI: 18.0864
LLC WRITEBACK NON_SPEC    ACCESS:      97455  HIT:      97455  MISS:          0  HIT %:        100  MISS %:          0   MPKI: 0
LLC CLEAN_EVICTION NON_SPEC    ACCESS:      84338  HIT:      21143  MISS:      63195  HIT %:    25.0694  MISS %:    74.9306   MPKI: 0.315975
LLC COMMIT LOAD NON_SPEC    ACCESS:      22251  HIT:         77  MISS:      22174  HIT %:   0.346052  MISS %:    99.6539   MPKI: 0.11087
LLC LOAD TRANSLATION NON_SPEC    ACCESS:       7437  HIT:          0  MISS:       7437  HIT %:          0  MISS %:        100   MPKI: 0.037185
LLC PREFETCH  REQUESTED:          0  ISSUED:          0  USEFUL:         77  USELESS:    3617168
LLC USEFUL LOAD PREFETCHES:         77 PREFETCH ISSUED TO LOWER LEVEL:    3617271  ACCURACY: 0.00212868
LLC TIMELY PREFETCHES:         77 LATE PREFETCHES: 0 DROPPED PREFETCHES: 0
LLC COMMIT LATE PREFETCHES: 0 MISSED OPPORTUNITY: 0 LATE IN PQ: 0 UNCOVERED: 0
LLC COMMIT LATE MSHR PREFETCHES: 0
LLC MPKI TOTAL: 0.429225 MSHR LATE: 0 PQ LATE: 0 COMMIT LATE: 0 MISSED OPPORTUNITY: 0 UNCOVERED: 0
LLC PREFETCHES SAME FILL-ORIGIN LEVEL: 0 DIFFERENT FILL-ORIGIN LEVEL: 0
LLC AVERAGE MISS LATENCY: 273.484 cycles
LLC AVERAGE MISS LATENCY LOAD: 110.256 cycles
LLC AVERAGE MISS LATENCY PREFETCH: 285.738 cycles
LLC AVERAGE MSHR OCCUPANCY: 3.4245
LLC MSHR FULL: 0
LLC RQ	ACCESS:     213381	FORWARD:          0	MERGED:          0	TO_CACHE:     213381
LLC WQ	ACCESS:     181793	FORWARD:          0	MERGED:          0	TO_CACHE:     181793
LLC PQ	ACCESS:    3617271	FORWARD:          0	MERGED:          0	TO_CACHE:    3617271

LLC Dense regions hint to LLC: 0

RAW hits: 397439
Loads Generated: 85960188
Loads sent to L1D: 85562746
Stores Generated: 11266814
Stores sent to L1D: 11266825
Major fault: 0 Minor fault: 70877
Allocated PAGES: 70877
Total Load insts: 106273653
Total Non-spec loads: 6677444
Percentage of speculative loads: 93.7167

LeapFrogging counter: 189899
Commit hits: 49323041 miss: 29960220
Commit hit %: 62.2112 miss %: 37.7888
Commits not translated: 0
Loads retired: 126037
Stores retired: 11266825
Cache fills: 126037
L1D response latency: 123.992 cycles
Load retirement latency: 725.332 cycles
OOO test counter: 0
Discarded buffer inserts: 49323041 hits: 436 hit %: 0.000883968
Filter prediction accuracy: 99.9996
Speculative prefetch buffer size: 0
CPU 0 L1D PC-based stride prefetcher final stats
Degree: 3

DRAM Statistics
 CHANNEL 0
 RQ ROW_BUFFER_HIT:    2880571  ROW_BUFFER_MISS:     949605
 DBUS_CONGESTED:       3713
 WQ ROW_BUFFER_HIT:      28464  ROW_BUFFER_MISS:     152597  FULL:          0

 AVG_CONGESTED_CYCLE: 4
 All warmup complete: 2
Channel 0 Bank busy for read cycles: 0
Channel 0 Bank busy for write cycles: 0
Channel 0
Rank 0
0banks busy for read cycles: 52340065
0banks busy for write cycles: 62518
1banks busy for read cycles: 47231166
1banks busy for write cycles: 7100514
2banks busy for read cycles: 26438838
2banks busy for write cycles: 3507916
3banks busy for read cycles: 34725945
3banks busy for write cycles: 3163170
4banks busy for read cycles: 14136589
4banks busy for write cycles: 752110
5banks busy for read cycles: 4016801
5banks busy for write cycles: 264016
6banks busy for read cycles: 783194
6banks busy for write cycles: 197204
7banks busy for read cycles: 119691
7banks busy for write cycles: 165200
8banks busy for read cycles: 6174
8banks busy for write cycles: 118093

CPU 0 Branch Prediction Accuracy: 99.9706% MPKI: 0.00733 Average ROB Occupancy at Mispredict: 30.0532
Branch types
NOT_BRANCH: 195007387 97.5037%
BRANCH_DIRECT_JUMP: 0 0%
BRANCH_INDIRECT: 0 0%
BRANCH_CONDITIONAL: 4992273 2.49614%
BRANCH_DIRECT_CALL: 0 0%
BRANCH_INDIRECT_CALL: 0 0%
BRANCH_RETURN: 0 0%
BRANCH_OTHER: 0 0%

DRAM PAGES: 1048576
Allocated PAGES: 70877
