
*** ChampSim Multicore Out-of-Order Simulator ***

Warmup Instructions: 50000000
Simulation Instructions: 200000000
Number of CPUs: 1
LLC sets: 2048
LLC ways: 16
L0D sets: 16
L0D ways: 2
ROB size: 352
LQ size: 128
SQ size: 72
Secure Berti: OFF
Berti: OFF
Berti Fill: OFF
On commit prefetching: OFF
Hit-based filter: ON
Time-guarding: ON
Free-slotting: ON
Leap-frogging: ON
Train prefetcher on L0D bypass: OFF
No translation penalty for prefetchers: OFF
Prefetch to L0D only: OFF
Prefetch to L1D only: OFF
Clean evictions: ON
Commit loads: ON
Commit write: ON
Fill commit loads to L2C, LLC: ON
DRAM IO FREQUENCY: 6400
ROB SIZE: 352
Off-chip DRAM Size: 4096 MB Channels: 1 Width: 64-bit Data Rate: 6400 MT/s
CPU 0 runs /home/sumon/secure_berti/GhostMinion/../../traces/spec/603.bwaves_s-2931B.champsimtrace.xz
.xz
BTB has LRU replacement policy
ITLB has LRU replacement policy
DTLB has LRU replacement policy
STLB has LRU replacement policy
L1I has LRU replacement policy
L0D has LRU replacement policy
CPU 0 L1D IP-based stride prefetcher
L1D has LRU replacement policy
L2C has LRU replacement policy
LLC has LRU replacement policy
Heartbeat CPU 0 instructions: 10000003 cycles: 3154810 heartbeat IPC: 3.16976 cumulative IPC: 3.16976 (Simulation time: 0 hr 0 min 32 sec) 
Heartbeat CPU 0 instructions: 20000003 cycles: 6308888 heartbeat IPC: 3.1705 cumulative IPC: 3.17013 (Simulation time: 0 hr 1 min 4 sec) 
Heartbeat CPU 0 instructions: 30000003 cycles: 9463448 heartbeat IPC: 3.17001 cumulative IPC: 3.17009 (Simulation time: 0 hr 1 min 37 sec) 
Heartbeat CPU 0 instructions: 40000002 cycles: 12617876 heartbeat IPC: 3.17015 cumulative IPC: 3.17011 (Simulation time: 0 hr 2 min 10 sec) 
Heartbeat CPU 0 instructions: 50000003 cycles: 15772515 heartbeat IPC: 3.16994 cumulative IPC: 3.17007 (Simulation time: 0 hr 2 min 42 sec) 

Warmup complete CPU 0 instructions: 50000003 cycles: 15772515 (Simulation time: 0 hr 2 min 42 sec) 

Heartbeat CPU 0 instructions: 60000002 cycles: 24134454 heartbeat IPC: 1.19589 cumulative IPC: 1.19589 (Simulation time: 0 hr 3 min 19 sec) 
Heartbeat CPU 0 instructions: 70000002 cycles: 32497131 heartbeat IPC: 1.19579 cumulative IPC: 1.19584 (Simulation time: 0 hr 3 min 56 sec) 
Heartbeat CPU 0 instructions: 80000003 cycles: 40859788 heartbeat IPC: 1.19579 cumulative IPC: 1.19583 (Simulation time: 0 hr 4 min 32 sec) 
Heartbeat CPU 0 instructions: 90000003 cycles: 49221615 heartbeat IPC: 1.19591 cumulative IPC: 1.19585 (Simulation time: 0 hr 5 min 9 sec) 
Heartbeat CPU 0 instructions: 100000002 cycles: 57584104 heartbeat IPC: 1.19582 cumulative IPC: 1.19584 (Simulation time: 0 hr 5 min 46 sec) 
Heartbeat CPU 0 instructions: 110000000 cycles: 65941363 heartbeat IPC: 1.19656 cumulative IPC: 1.19596 (Simulation time: 0 hr 6 min 22 sec) 
Heartbeat CPU 0 instructions: 120000000 cycles: 74301518 heartbeat IPC: 1.19615 cumulative IPC: 1.19599 (Simulation time: 0 hr 6 min 59 sec) 
Heartbeat CPU 0 instructions: 130000002 cycles: 82666972 heartbeat IPC: 1.19539 cumulative IPC: 1.19591 (Simulation time: 0 hr 7 min 35 sec) 
Heartbeat CPU 0 instructions: 140000002 cycles: 91026231 heartbeat IPC: 1.19628 cumulative IPC: 1.19595 (Simulation time: 0 hr 8 min 11 sec) 
Heartbeat CPU 0 instructions: 150000001 cycles: 99389894 heartbeat IPC: 1.19565 cumulative IPC: 1.19592 (Simulation time: 0 hr 8 min 47 sec) 
Heartbeat CPU 0 instructions: 160000001 cycles: 107747063 heartbeat IPC: 1.19658 cumulative IPC: 1.19598 (Simulation time: 0 hr 9 min 23 sec) 
Heartbeat CPU 0 instructions: 170000003 cycles: 116104287 heartbeat IPC: 1.19657 cumulative IPC: 1.19603 (Simulation time: 0 hr 10 min 0 sec) 
Heartbeat CPU 0 instructions: 180000000 cycles: 124470250 heartbeat IPC: 1.19532 cumulative IPC: 1.19598 (Simulation time: 0 hr 10 min 37 sec) 
Heartbeat CPU 0 instructions: 190000000 cycles: 132829374 heartbeat IPC: 1.1963 cumulative IPC: 1.196 (Simulation time: 0 hr 11 min 14 sec) 
Heartbeat CPU 0 instructions: 200000000 cycles: 141186405 heartbeat IPC: 1.1966 cumulative IPC: 1.19604 (Simulation time: 0 hr 11 min 51 sec) 
Heartbeat CPU 0 instructions: 210000003 cycles: 149549802 heartbeat IPC: 1.19569 cumulative IPC: 1.19602 (Simulation time: 0 hr 12 min 27 sec) 
Heartbeat CPU 0 instructions: 220000000 cycles: 157909587 heartbeat IPC: 1.1962 cumulative IPC: 1.19603 (Simulation time: 0 hr 13 min 2 sec) 
Heartbeat CPU 0 instructions: 230000000 cycles: 166269647 heartbeat IPC: 1.19616 cumulative IPC: 1.19604 (Simulation time: 0 hr 13 min 36 sec) 
Heartbeat CPU 0 instructions: 240000000 cycles: 174626135 heartbeat IPC: 1.19667 cumulative IPC: 1.19607 (Simulation time: 0 hr 14 min 11 sec) 
Heartbeat CPU 0 instructions: 250000001 cycles: 182984305 heartbeat IPC: 1.19643 cumulative IPC: 1.19609 (Simulation time: 0 hr 14 min 45 sec) 
Finished CPU 0 instructions: 200000002 cycles: 167211791 cumulative IPC: 1.19609 (Simulation time: 0 hr 14 min 45 sec) 
 Instruction ID: 250000064

ChampSim completed all CPUs

Region of Interest Statistics

CPU 0 cumulative IPC: 1.19609 instructions: 200000002 cycles: 167211791
ITLB SPEC fills:          0  NON-SPEC fills:          0
ITLB Test counter :          0
ITLB Leapfrog:          0
ITLB MSHR merge:          0
ITLB TOTAL     ACCESS:   24091379  HIT:   24091379  MISS:          0  HIT %:        100  MISS %:          0   MPKI: 0
ITLB LOAD TRANSLATION NON_SPEC    ACCESS:   24091379  HIT:   24091379  MISS:          0  HIT %:        100  MISS %:          0   MPKI: 0
ITLB PREFETCH  REQUESTED:          0  ISSUED:          0  USEFUL:          0  USELESS:          0
ITLB USEFUL LOAD PREFETCHES:          0 PREFETCH ISSUED TO LOWER LEVEL:          0  ACCURACY: -nan
ITLB TIMELY PREFETCHES:          0 LATE PREFETCHES: 0 DROPPED PREFETCHES: 0
ITLB COMMIT LATE PREFETCHES: 0 MISSED OPPORTUNITY: 0 LATE IN PQ: 0 UNCOVERED: 0
ITLB COMMIT LATE MSHR PREFETCHES: 0
ITLB MPKI TOTAL: 0 MSHR LATE: 0 PQ LATE: 0 COMMIT LATE: 0 MISSED OPPORTUNITY: 0 UNCOVERED: 0
ITLB PREFETCHES SAME FILL-ORIGIN LEVEL: 0 DIFFERENT FILL-ORIGIN LEVEL: 0
ITLB AVERAGE MISS LATENCY: -nan cycles
ITLB AVERAGE MISS LATENCY LOAD: -nan cycles
ITLB AVERAGE MISS LATENCY PREFETCH: -nan cycles
ITLB AVERAGE MSHR OCCUPANCY: 0
ITLB MSHR FULL: 0
ITLB RQ	ACCESS:   27855296	FORWARD:          0	MERGED:    3763917	TO_CACHE:   24091379

DTLB SPEC fills:          0  NON-SPEC fills:          0
DTLB Test counter :          0
DTLB Leapfrog:          0
DTLB MSHR merge:          0
DTLB TOTAL     ACCESS:   54465853  HIT:   54025079  MISS:     440774  HIT %:    99.1907  MISS %:   0.809267   MPKI: 2.20387
DTLB LOAD TRANSLATION NON_SPEC    ACCESS:   54465853  HIT:   54025079  MISS:     440774  HIT %:    99.1907  MISS %:   0.809267   MPKI: 2.20387
DTLB PREFETCH  REQUESTED:          0  ISSUED:          0  USEFUL:          0  USELESS:          0
DTLB USEFUL LOAD PREFETCHES:          0 PREFETCH ISSUED TO LOWER LEVEL:          0  ACCURACY: -nan
DTLB TIMELY PREFETCHES:          0 LATE PREFETCHES: 0 DROPPED PREFETCHES: 0
DTLB COMMIT LATE PREFETCHES: 0 MISSED OPPORTUNITY: 0 LATE IN PQ: 0 UNCOVERED: 0
DTLB COMMIT LATE MSHR PREFETCHES: 0
DTLB MPKI TOTAL: 0 MSHR LATE: 0 PQ LATE: 0 COMMIT LATE: 0 MISSED OPPORTUNITY: 0 UNCOVERED: 0
DTLB PREFETCHES SAME FILL-ORIGIN LEVEL: 0 DIFFERENT FILL-ORIGIN LEVEL: 0
DTLB AVERAGE MISS LATENCY: 56.0799 cycles
DTLB AVERAGE MISS LATENCY LOAD: -nan cycles
DTLB AVERAGE MISS LATENCY PREFETCH: -nan cycles
DTLB AVERAGE MSHR OCCUPANCY: 0.0671985
DTLB MSHR FULL: 2.56816e-07
DTLB RQ	ACCESS:   82775335	FORWARD:          0	MERGED:   28261581	TO_CACHE:   54513754

STLB SPEC fills:          0  NON-SPEC fills:          0
STLB Test counter :          0
STLB Leapfrog:          0
STLB MSHR merge:          0
STLB TOTAL     ACCESS:    2614637  HIT:    2572033  MISS:      42604  HIT %:    98.3706  MISS %:    1.62944   MPKI: 0.21302
STLB LOAD TRANSLATION NON_SPEC    ACCESS:     440774  HIT:     398170  MISS:      42604  HIT %:    90.3343  MISS %:    9.66572   MPKI: 0.21302
STLB TRANSLATION FROM L1D PREFETCHER NON_SPEC    ACCESS:    2173863  HIT:    2173863  MISS:          0  HIT %:        100  MISS %:          0   MPKI: 0
STLB PREFETCH  REQUESTED:          0  ISSUED:          0  USEFUL:          0  USELESS:          0
STLB USEFUL LOAD PREFETCHES:          0 PREFETCH ISSUED TO LOWER LEVEL:          0  ACCURACY: -nan
STLB TIMELY PREFETCHES:          0 LATE PREFETCHES: 0 DROPPED PREFETCHES: 0
STLB COMMIT LATE PREFETCHES: 0 MISSED OPPORTUNITY: 0 LATE IN PQ: 0 UNCOVERED: 0
STLB COMMIT LATE MSHR PREFETCHES: 0
STLB MPKI TOTAL: 0 MSHR LATE: 0 PQ LATE: 0 COMMIT LATE: 0 MISSED OPPORTUNITY: 0 UNCOVERED: 0
STLB PREFETCHES SAME FILL-ORIGIN LEVEL: 0 DIFFERENT FILL-ORIGIN LEVEL: 0
STLB AVERAGE MISS LATENCY: 485.886 cycles
STLB AVERAGE MISS LATENCY LOAD: -nan cycles
STLB AVERAGE MISS LATENCY PREFETCH: -nan cycles
STLB AVERAGE MSHR OCCUPANCY: 0.0743105
STLB MSHR FULL: 0
STLB RQ	ACCESS:    6858544	FORWARD:          0	MERGED:    4243907	TO_CACHE:    2614637

STLB Hit, L1D data hit: 0
STLB Hit, L2C data hit: 0
STLB Hit, LLC data hit: 0
STLB Hit, LLC data miss: 0
STLB STLB hints to L2: 0
L0D SPEC fills:   29451836  NON-SPEC fills:          0
L0D TimeGuard Request with older TS:     279446 Restricted eviction:    1285871 read:     123688
L0D Test counter :          0
L0D Leapfrog:          0
L0D MSHR merge:    1307754
L0D TOTAL     ACCESS:   44818522  HIT:    9617903  MISS:   35200619  HIT %:    21.4597  MISS %:    78.5403   MPKI: 176.003
L0D LOAD      TOTAL       ACCESS:   44818522  HIT:    9617903  MISS:   35200619  HIT %:    21.4597  MISS %:    78.5403   MPKI: 176.003
L0D LOAD      NON_SPEC    ACCESS:    5558875  HIT:    1095853  MISS:    4463022  HIT %:    19.7136  MISS %:    80.2864   MPKI: 22.3151
L0D LOAD      SPEC        ACCESS:   39259647  HIT:    8522050  MISS:   30737597  HIT %:    21.7069  MISS %:    78.2931   MPKI: 153.688
L0D PREFETCH  REQUESTED:          0  ISSUED:          0  USEFUL:          0  USELESS:          0
L0D USEFUL LOAD PREFETCHES:          0 PREFETCH ISSUED TO LOWER LEVEL:          0  ACCURACY: -nan
L0D TIMELY PREFETCHES:          0 LATE PREFETCHES: 0 DROPPED PREFETCHES: 0
L0D COMMIT LATE PREFETCHES: 0 MISSED OPPORTUNITY: 0 LATE IN PQ: 0 UNCOVERED: 0
L0D COMMIT LATE MSHR PREFETCHES: 0
L0D MPKI TOTAL: 182.542 MSHR LATE: 0 PQ LATE: 0 COMMIT LATE: 0 MISSED OPPORTUNITY: 0 UNCOVERED: 0
L0D PREFETCHES SAME FILL-ORIGIN LEVEL: 0 DIFFERENT FILL-ORIGIN LEVEL: 0
L0D AVERAGE MISS LATENCY: 5.52627 cycles
L0D AVERAGE MISS LATENCY LOAD: 5.52627 cycles
L0D AVERAGE MISS LATENCY PREFETCH: -nan cycles
L0D AVERAGE MSHR OCCUPANCY: 1.09637
L0D MSHR FULL: 1.08398e-07
L0D RQ	ACCESS:   57863009	FORWARD:          0	MERGED:   11736734	TO_CACHE:   46126275
L0D WQ	ACCESS:   36649060	FORWARD:          0	MERGED:          0	TO_CACHE:   36649060

L1D SPEC fills:          0  NON-SPEC fills:      54230
L1D Test counter :          0
L1D Leapfrog:          0
L1D MSHR merge:       1374
L1D TOTAL     ACCESS:   74971963  HIT:   70836173  MISS:    4135790  HIT %:    94.4836  MISS %:    5.51645   MPKI: 20.6789
L1D LOAD      TOTAL       ACCESS:   35199246  HIT:   34559603  MISS:     639643  HIT %:    98.1828  MISS %:    1.81721   MPKI: 3.19821
L1D LOAD      NON_SPEC    ACCESS:    4463018  HIT:    4408788  MISS:      54230  HIT %:    98.7849  MISS %:     1.2151   MPKI: 0.27115
L1D LOAD      SPEC        ACCESS:   30736228  HIT:   30150815  MISS:     585413  HIT %:    98.0954  MISS %:    1.90464   MPKI: 2.92706
L1D RFO       NON_SPEC    ACCESS:   33370395  HIT:   32179461  MISS:    1190934  HIT %:    96.4312  MISS %:    3.56883   MPKI: 5.95467
L1D PREFETCH  NON_SPEC    ACCESS:    5793200  HIT:    4072846  MISS:    1720354  HIT %:    70.3039  MISS %:    29.6961   MPKI: 8.60177
L1D COMMIT LOAD NON_SPEC    ACCESS:      31961  HIT:      21607  MISS:      10354  HIT %:    67.6043  MISS %:    32.3957   MPKI: 0.05177
L1D COMMIT WRITE NON_SPEC    ACCESS:     577161  HIT:       2656  MISS:     574505  HIT %:   0.460184  MISS %:    99.5398   MPKI: 2.87252
L1D PREFETCH  REQUESTED:    6418101  ISSUED:    6417770  USEFUL:    1716009  USELESS:       4351
L1D USEFUL LOAD PREFETCHES:    1716009 PREFETCH ISSUED TO LOWER LEVEL:    2343810  ACCURACY: 73.2145
L1D TIMELY PREFETCHES:    1716009 LATE PREFETCHES: 0 DROPPED PREFETCHES: 0
L1D COMMIT LATE PREFETCHES: 0 MISSED OPPORTUNITY: 0 LATE IN PQ: 0 UNCOVERED: 0
L1D COMMIT LATE MSHR PREFETCHES: 0
L1D MPKI TOTAL: 3.20508 MSHR LATE: 0 PQ LATE: 0 COMMIT LATE: 0 MISSED OPPORTUNITY: 0 UNCOVERED: 0
L1D PREFETCHES SAME FILL-ORIGIN LEVEL: 1720354 DIFFERENT FILL-ORIGIN LEVEL: 623456
L1D AVERAGE MISS LATENCY: 202.131 cycles
L1D AVERAGE MISS LATENCY LOAD: 19.5096 cycles
L1D AVERAGE MISS LATENCY PREFETCH: 216.552 cycles
L1D AVERAGE MSHR OCCUPANCY: 5.01748
L1D MSHR FULL: 0.000183691
L1D RQ	ACCESS:   35265641	FORWARD:          0	MERGED:      32777	TO_CACHE:   35232864
L1D WQ	ACCESS:   37226228	FORWARD:          0	MERGED:       5498	TO_CACHE:   37220730
L1D PQ	ACCESS:    6417770	FORWARD:          0	MERGED:          0	TO_CACHE:    6417770

L1D UNIQUE REGIONS ACCESSED: 0
L1D REGIONS CONFLICTS: 0
L1D Cross Page Prefetch Requests: 0
L1D Same Page Prefetch Requests: 8022278
L1D ROI Sum of L1D PQ occupancy: 86989941
L1D PREFETCHES PUSHED FROM L2C: 0
L1I SPEC fills:          0  NON-SPEC fills:          0
L1I Test counter :          0
L1I Leapfrog:          0
L1I MSHR merge:          0
L1I TOTAL     ACCESS:   27855294  HIT:   27855294  MISS:          0  HIT %:        100  MISS %:          0   MPKI: 0
L1I LOAD      TOTAL       ACCESS:   27855294  HIT:   27855294  MISS:          0  HIT %:        100  MISS %:          0   MPKI: 0
L1I LOAD      NON_SPEC    ACCESS:   27855294  HIT:   27855294  MISS:          0  HIT %:        100  MISS %:          0   MPKI: 0
L1I PREFETCH  REQUESTED:          0  ISSUED:          0  USEFUL:          0  USELESS:          0
L1I USEFUL LOAD PREFETCHES:          0 PREFETCH ISSUED TO LOWER LEVEL:          0  ACCURACY: -nan
L1I TIMELY PREFETCHES:          0 LATE PREFETCHES: 0 DROPPED PREFETCHES: 0
L1I COMMIT LATE PREFETCHES: 0 MISSED OPPORTUNITY: 0 LATE IN PQ: 0 UNCOVERED: 0
L1I COMMIT LATE MSHR PREFETCHES: 0
L1I MPKI TOTAL: 0 MSHR LATE: 0 PQ LATE: 0 COMMIT LATE: 0 MISSED OPPORTUNITY: 0 UNCOVERED: 0
L1I PREFETCHES SAME FILL-ORIGIN LEVEL: 0 DIFFERENT FILL-ORIGIN LEVEL: 0
L1I AVERAGE MISS LATENCY: -nan cycles
L1I AVERAGE MISS LATENCY LOAD: -nan cycles
L1I AVERAGE MISS LATENCY PREFETCH: -nan cycles
L1I AVERAGE MSHR OCCUPANCY: 0
L1I MSHR FULL: 0
L1I RQ	ACCESS:   40705839	FORWARD:          0	MERGED:   12850543	TO_CACHE:   27855296

BTB SPEC fills:          0  NON-SPEC fills:          0
BTB Test counter :          0
BTB Leapfrog:          0
BTB MSHR merge:          0
BTB TOTAL     ACCESS:    1687994  HIT:    1687989  MISS:          5  HIT %:    99.9997  MISS %: 0.00029621   MPKI: 2.5e-05
BTB BRANCH_DIRECT_JUMP	ACCESS:          0  HIT:          0  MISS:          0
BTB BRANCH_INDIRECT	ACCESS:          0  HIT:          0  MISS:          0
BTB BRANCH_CONDITIONAL	ACCESS:    1687994  HIT:    1687989  MISS:          5
BTB BRANCH_DIRECT_CALL	ACCESS:          0  HIT:          0  MISS:          0
BTB BRANCH_INDIRECT_CALL	ACCESS:          0  HIT:          0  MISS:          0
BTB BRANCH_RETURN	ACCESS:          0  HIT:          0  MISS:          0
BTB BRANCH_OTHER ACCESS:          0  HIT:          0  MISS:          0

L2C SPEC fills:          0  NON-SPEC fills:       3257
L2C Test counter :          0
L2C Leapfrog:          0
L2C MSHR merge:          0
L2C TOTAL     ACCESS:    5627988  HIT:    2679099  MISS:    2948889  HIT %:    47.6031  MISS %:    52.3969   MPKI: 14.7444
L2C LOAD      TOTAL       ACCESS:     638759  HIT:     606154  MISS:      32605  HIT %:    94.8956  MISS %:    5.10443   MPKI: 0.163025
L2C LOAD      NON_SPEC    ACCESS:      54229  HIT:      50972  MISS:       3257  HIT %:     93.994  MISS %:    6.00601   MPKI: 0.016285
L2C LOAD      SPEC        ACCESS:     584530  HIT:     555182  MISS:      29348  HIT %:    94.9792  MISS %:    5.02079   MPKI: 0.14674
L2C RFO       NON_SPEC    ACCESS:    1190854  HIT:         86  MISS:    1190768  HIT %: 0.00722171  MISS %:    99.9928   MPKI: 5.95384
L2C PREFETCH  NON_SPEC    ACCESS:    2343391  HIT:     652700  MISS:    1690691  HIT %:    27.8528  MISS %:    72.1472   MPKI: 8.45345
L2C WRITEBACK NON_SPEC    ACCESS:    1191473  HIT:    1191447  MISS:         26  HIT %:    99.9978  MISS %: 0.00218217   MPKI: 0.00013
L2C CLEAN_EVICTION NON_SPEC    ACCESS:      40210  HIT:      10842  MISS:      29368  HIT %:    26.9634  MISS %:    73.0366   MPKI: 0.14684
L2C COMMIT LOAD NON_SPEC    ACCESS:      10354  HIT:      10285  MISS:         69  HIT %:    99.3336  MISS %:   0.666409   MPKI: 0.000345
L2C LOAD TRANSLATION NON_SPEC    ACCESS:     212947  HIT:     207585  MISS:       5362  HIT %:     97.482  MISS %:      2.518   MPKI: 0.02681
L2C PREFETCH  REQUESTED:          0  ISSUED:          0  USEFUL:     549764  USELESS:    1139906
L2C USEFUL LOAD PREFETCHES:     549764 PREFETCH ISSUED TO LOWER LEVEL:    1690693  ACCURACY: 32.5171
L2C TIMELY PREFETCHES:     549764 LATE PREFETCHES: 0 DROPPED PREFETCHES: 0
L2C COMMIT LATE PREFETCHES: 0 MISSED OPPORTUNITY: 0 LATE IN PQ: 0 UNCOVERED: 0
L2C COMMIT LATE MSHR PREFETCHES: 0
L2C MPKI TOTAL: 0.163025 MSHR LATE: 0 PQ LATE: 0 COMMIT LATE: 0 MISSED OPPORTUNITY: 0 UNCOVERED: 0
L2C PREFETCHES SAME FILL-ORIGIN LEVEL: 231758 DIFFERENT FILL-ORIGIN LEVEL: 0
L2C AVERAGE MISS LATENCY: 294.238 cycles
L2C AVERAGE MISS LATENCY LOAD: 157.679 cycles
L2C AVERAGE MISS LATENCY PREFETCH: 253.424 cycles
L2C AVERAGE MSHR OCCUPANCY: 6.21523
L2C MSHR FULL: 0
L2C RQ	ACCESS:    2053880	FORWARD:          0	MERGED:          0	TO_CACHE:    2052916
L2C WQ	ACCESS:    1231683	FORWARD:        964	MERGED:          0	TO_CACHE:    1231683
L2C PQ	ACCESS:    2343810	FORWARD:          0	MERGED:          0	TO_CACHE:    2343810

L2C Instructions Evicting Data 0
L2C Translations Evicting Data 5361
L2C Data Evicting Data 2879486
L2C Instructions Evicting Instructions 0
L2C Translations Evicting Instructions 0
L2C Data Evicting Instructions 0
L2C Instructions Evicting Translations 0
L2C Translations Evicting Translations 1
L2C Data Evicting Translations 5299
L2C Dense regions hint from L2: 0
PSCL5 SPEC fills:          0  NON-SPEC fills:          0
PSCL5 Test counter :          0
PSCL5 Leapfrog:          0
PSCL5 MSHR merge:          0
PSCL5 TOTAL     ACCESS:          0  HIT:          0  MISS:          0  HIT %:       -nan  MISS %:       -nan   MPKI: 0
PSCL5 PREFETCH  REQUESTED:          0  ISSUED:          0  USEFUL:          0  USELESS:          0
PSCL5 USEFUL LOAD PREFETCHES:          0 PREFETCH ISSUED TO LOWER LEVEL:          0  ACCURACY: -nan
PSCL5 TIMELY PREFETCHES:          0 LATE PREFETCHES: 0 DROPPED PREFETCHES: 0
PSCL5 COMMIT LATE PREFETCHES: 0 MISSED OPPORTUNITY: 0 LATE IN PQ: 0 UNCOVERED: 0
PSCL5 COMMIT LATE MSHR PREFETCHES: 0
PSCL5 MPKI TOTAL: 0 MSHR LATE: 0 PQ LATE: 0 COMMIT LATE: 0 MISSED OPPORTUNITY: 0 UNCOVERED: 0
PSCL5 PREFETCHES SAME FILL-ORIGIN LEVEL: 0 DIFFERENT FILL-ORIGIN LEVEL: 0

PSCL4 SPEC fills:          0  NON-SPEC fills:          0
PSCL4 Test counter :          0
PSCL4 Leapfrog:          0
PSCL4 MSHR merge:          0
PSCL4 TOTAL     ACCESS:          0  HIT:          0  MISS:          0  HIT %:       -nan  MISS %:       -nan   MPKI: 0
PSCL4 PREFETCH  REQUESTED:          0  ISSUED:          0  USEFUL:          0  USELESS:          0
PSCL4 USEFUL LOAD PREFETCHES:          0 PREFETCH ISSUED TO LOWER LEVEL:          0  ACCURACY: -nan
PSCL4 TIMELY PREFETCHES:          0 LATE PREFETCHES: 0 DROPPED PREFETCHES: 0
PSCL4 COMMIT LATE PREFETCHES: 0 MISSED OPPORTUNITY: 0 LATE IN PQ: 0 UNCOVERED: 0
PSCL4 COMMIT LATE MSHR PREFETCHES: 0
PSCL4 MPKI TOTAL: 0 MSHR LATE: 0 PQ LATE: 0 COMMIT LATE: 0 MISSED OPPORTUNITY: 0 UNCOVERED: 0
PSCL4 PREFETCHES SAME FILL-ORIGIN LEVEL: 0 DIFFERENT FILL-ORIGIN LEVEL: 0

PSCL3 SPEC fills:          0  NON-SPEC fills:          0
PSCL3 Test counter :          0
PSCL3 Leapfrog:          0
PSCL3 MSHR merge:          0
PSCL3 TOTAL     ACCESS:          0  HIT:          0  MISS:          0  HIT %:       -nan  MISS %:       -nan   MPKI: 0
PSCL3 PREFETCH  REQUESTED:          0  ISSUED:          0  USEFUL:          0  USELESS:          0
PSCL3 USEFUL LOAD PREFETCHES:          0 PREFETCH ISSUED TO LOWER LEVEL:          0  ACCURACY: -nan
PSCL3 TIMELY PREFETCHES:          0 LATE PREFETCHES: 0 DROPPED PREFETCHES: 0
PSCL3 COMMIT LATE PREFETCHES: 0 MISSED OPPORTUNITY: 0 LATE IN PQ: 0 UNCOVERED: 0
PSCL3 COMMIT LATE MSHR PREFETCHES: 0
PSCL3 MPKI TOTAL: 0 MSHR LATE: 0 PQ LATE: 0 COMMIT LATE: 0 MISSED OPPORTUNITY: 0 UNCOVERED: 0
PSCL3 PREFETCHES SAME FILL-ORIGIN LEVEL: 0 DIFFERENT FILL-ORIGIN LEVEL: 0

PSCL2 SPEC fills:          0  NON-SPEC fills:          0
PSCL2 Test counter :          0
PSCL2 Leapfrog:          0
PSCL2 MSHR merge:          0
PSCL2 TOTAL     ACCESS:          0  HIT:          0  MISS:          0  HIT %:       -nan  MISS %:       -nan   MPKI: 0
PSCL2 PREFETCH  REQUESTED:          0  ISSUED:          0  USEFUL:          0  USELESS:          0
PSCL2 USEFUL LOAD PREFETCHES:          0 PREFETCH ISSUED TO LOWER LEVEL:          0  ACCURACY: -nan
PSCL2 TIMELY PREFETCHES:          0 LATE PREFETCHES: 0 DROPPED PREFETCHES: 0
PSCL2 COMMIT LATE PREFETCHES: 0 MISSED OPPORTUNITY: 0 LATE IN PQ: 0 UNCOVERED: 0
PSCL2 COMMIT LATE MSHR PREFETCHES: 0
PSCL2 MPKI TOTAL: 0 MSHR LATE: 0 PQ LATE: 0 COMMIT LATE: 0 MISSED OPPORTUNITY: 0 UNCOVERED: 0
PSCL2 PREFETCHES SAME FILL-ORIGIN LEVEL: 0 DIFFERENT FILL-ORIGIN LEVEL: 0

LLC SPEC fills:          0  NON-SPEC fills:       2936
LLC Test counter :          0
LLC Leapfrog:          0
LLC MSHR merge:          0
LLC TOTAL     ACCESS:    4139977  HIT:    1383535  MISS:    2756442  HIT %:    33.4189  MISS %:    66.5811   MPKI: 13.7822
LLC LOAD      TOTAL       ACCESS:      32603  HIT:       4563  MISS:      28040  HIT %:    13.9956  MISS %:    86.0044   MPKI: 0.1402
LLC LOAD      NON_SPEC    ACCESS:       3257  HIT:        321  MISS:       2936  HIT %:     9.8557  MISS %:    90.1443   MPKI: 0.01468
LLC LOAD      SPEC        ACCESS:      29346  HIT:       4242  MISS:      25104  HIT %:    14.4551  MISS %:    85.5449   MPKI: 0.12552
LLC RFO       NON_SPEC    ACCESS:    1190768  HIT:          0  MISS:    1190768  HIT %:          0  MISS %:        100   MPKI: 5.95384
LLC PREFETCH  NON_SPEC    ACCESS:    1690691  HIT:     183634  MISS:    1507057  HIT %:    10.8615  MISS %:    89.1385   MPKI: 7.53528
LLC WRITEBACK NON_SPEC    ACCESS:    1190989  HIT:    1190950  MISS:         39  HIT %:    99.9967  MISS %: 0.00327459   MPKI: 0.000195
LLC CLEAN_EVICTION NON_SPEC    ACCESS:      29495  HIT:       4369  MISS:      25126  HIT %:    14.8127  MISS %:    85.1873   MPKI: 0.12563
LLC COMMIT LOAD NON_SPEC    ACCESS:         69  HIT:          1  MISS:         68  HIT %:    1.44928  MISS %:    98.5507   MPKI: 0.00034
LLC LOAD TRANSLATION NON_SPEC    ACCESS:       5362  HIT:         18  MISS:       5344  HIT %:   0.335696  MISS %:    99.6643   MPKI: 0.02672
LLC PREFETCH  REQUESTED:          0  ISSUED:          0  USEFUL:        228  USELESS:    1507023
LLC USEFUL LOAD PREFETCHES:        228 PREFETCH ISSUED TO LOWER LEVEL:    1507059  ACCURACY: 0.0151288
LLC TIMELY PREFETCHES:        228 LATE PREFETCHES: 0 DROPPED PREFETCHES: 0
LLC COMMIT LATE PREFETCHES: 0 MISSED OPPORTUNITY: 0 LATE IN PQ: 0 UNCOVERED: 0
LLC COMMIT LATE MSHR PREFETCHES: 0
LLC MPKI TOTAL: 0.1402 MSHR LATE: 0 PQ LATE: 0 COMMIT LATE: 0 MISSED OPPORTUNITY: 0 UNCOVERED: 0
LLC PREFETCHES SAME FILL-ORIGIN LEVEL: 0 DIFFERENT FILL-ORIGIN LEVEL: 0
LLC AVERAGE MISS LATENCY: 281.887 cycles
LLC AVERAGE MISS LATENCY LOAD: 146.233 cycles
LLC AVERAGE MISS LATENCY PREFETCH: 249.341 cycles
LLC AVERAGE MSHR OCCUPANCY: 7.88527
LLC MSHR FULL: 0
LLC RQ	ACCESS:    1228806	FORWARD:          0	MERGED:          0	TO_CACHE:    1228804
LLC WQ	ACCESS:    1220484	FORWARD:          2	MERGED:          0	TO_CACHE:    1220484
LLC PQ	ACCESS:    1690693	FORWARD:          0	MERGED:          0	TO_CACHE:    1690693

LLC Dense regions hint to LLC: 0

RAW hits: 782930
Loads Generated: 58645943
Loads sent to L1D: 57863009
Stores Generated: 36649052
Stores sent to L1D: 36649060
Major fault: 0 Minor fault: 48769
Allocated PAGES: 48769
Total Load insts: 68902803
Total Non-spec loads: 6466705
Percentage of speculative loads: 90.6147

LeapFrogging counter: 5
Commit hits: 29184473 miss: 22956334
Commit hit %: 55.9724 miss %: 44.0276
Commits not translated: 0
Loads retired: 639643
Stores retired: 36649060
Cache fills: 639643
L1D response latency: 19.5096 cycles
Load retirement latency: 48.1352 cycles
OOO test counter: 0
Discarded buffer inserts: 29184473 hits: 367334 hit %: 1.25866
Filter prediction accuracy: 99.6203
Speculative prefetch buffer size: 0
CPU 0 L1D PC-based stride prefetcher final stats
Degree: 3

DRAM Statistics
 CHANNEL 0
 RQ ROW_BUFFER_HIT:    1434222  ROW_BUFFER_MISS:    1297057
 DBUS_CONGESTED:       3321
 WQ ROW_BUFFER_HIT:     495003  ROW_BUFFER_MISS:     721071  FULL:          0

 AVG_CONGESTED_CYCLE: 5
 All warmup complete: 2
Channel 0 Bank busy for read cycles: 0
Channel 0 Bank busy for write cycles: 0
Channel 0
Rank 0
0banks busy for read cycles: 661683
0banks busy for write cycles: 11031
1banks busy for read cycles: 32953306
1banks busy for write cycles: 1315671
2banks busy for read cycles: 65082791
2banks busy for write cycles: 1999919
3banks busy for read cycles: 27179338
3banks busy for write cycles: 2421792
4banks busy for read cycles: 4756960
4banks busy for write cycles: 2835868
5banks busy for read cycles: 686173
5banks busy for write cycles: 3161919
6banks busy for read cycles: 34204
6banks busy for write cycles: 3808112
7banks busy for read cycles: 647
7banks busy for write cycles: 5423830
8banks busy for read cycles: 0
8banks busy for write cycles: 14878548

CPU 0 Branch Prediction Accuracy: 99.9697% MPKI: 0.00256 Average ROB Occupancy at Mispredict: 49.9023
Branch types
NOT_BRANCH: 198311676 99.1558%
BRANCH_DIRECT_JUMP: 0 0%
BRANCH_INDIRECT: 0 0%
BRANCH_CONDITIONAL: 1688003 0.844001%
BRANCH_DIRECT_CALL: 0 0%
BRANCH_INDIRECT_CALL: 0 0%
BRANCH_RETURN: 0 0%
BRANCH_OTHER: 0 0%

DRAM PAGES: 1048576
Allocated PAGES: 48769
