
*** ChampSim Multicore Out-of-Order Simulator ***

Warmup Instructions: 50000000
Simulation Instructions: 200000000
Number of CPUs: 1
LLC sets: 2048
LLC ways: 16
L0D sets: 16
L0D ways: 2
ROB size: 352
LQ size: 128
SQ size: 72
Secure Berti: OFF
Berti: OFF
Berti Fill: OFF
On commit prefetching: OFF
Hit-based filter: ON
Time-guarding: ON
Free-slotting: ON
Leap-frogging: ON
Train prefetcher on L0D bypass: OFF
No translation penalty for prefetchers: OFF
Prefetch to L0D only: OFF
Prefetch to L1D only: OFF
Clean evictions: ON
Commit loads: ON
Commit write: ON
Fill commit loads to L2C, LLC: ON
DRAM IO FREQUENCY: 6400
ROB SIZE: 352
Off-chip DRAM Size: 4096 MB Channels: 1 Width: 64-bit Data Rate: 6400 MT/s
CPU 0 runs /home/sumon/secure_berti/GhostMinion/../../traces/spec/603.bwaves_s-891B.champsimtrace.xz
.xz
BTB has LRU replacement policy
ITLB has LRU replacement policy
DTLB has LRU replacement policy
STLB has LRU replacement policy
L1I has LRU replacement policy
L0D has LRU replacement policy
CPU 0 L1D IP-based stride prefetcher
L1D has LRU replacement policy
L2C has LRU replacement policy
LLC has LRU replacement policy
Heartbeat CPU 0 instructions: 10000003 cycles: 2770720 heartbeat IPC: 3.60917 cumulative IPC: 3.60917 (Simulation time: 0 hr 0 min 25 sec) 
Heartbeat CPU 0 instructions: 20000003 cycles: 5541426 heartbeat IPC: 3.60919 cumulative IPC: 3.60918 (Simulation time: 0 hr 0 min 52 sec) 
Heartbeat CPU 0 instructions: 30000003 cycles: 8312298 heartbeat IPC: 3.60897 cumulative IPC: 3.60911 (Simulation time: 0 hr 1 min 18 sec) 
Heartbeat CPU 0 instructions: 40000000 cycles: 11082853 heartbeat IPC: 3.60938 cumulative IPC: 3.60918 (Simulation time: 0 hr 1 min 45 sec) 
Heartbeat CPU 0 instructions: 50000002 cycles: 14015788 heartbeat IPC: 3.40955 cumulative IPC: 3.56741 (Simulation time: 0 hr 2 min 4 sec) 

Warmup complete CPU 0 instructions: 50000002 cycles: 14015788 (Simulation time: 0 hr 2 min 4 sec) 

Heartbeat CPU 0 instructions: 60000002 cycles: 27775567 heartbeat IPC: 0.726756 cumulative IPC: 0.726756 (Simulation time: 0 hr 2 min 31 sec) 
Heartbeat CPU 0 instructions: 70000001 cycles: 41534982 heartbeat IPC: 0.726775 cumulative IPC: 0.726765 (Simulation time: 0 hr 2 min 57 sec) 
Heartbeat CPU 0 instructions: 80000000 cycles: 55295059 heartbeat IPC: 0.72674 cumulative IPC: 0.726757 (Simulation time: 0 hr 3 min 23 sec) 
Heartbeat CPU 0 instructions: 90000001 cycles: 69054628 heartbeat IPC: 0.726767 cumulative IPC: 0.726759 (Simulation time: 0 hr 3 min 49 sec) 
Heartbeat CPU 0 instructions: 100000000 cycles: 82814308 heartbeat IPC: 0.726761 cumulative IPC: 0.72676 (Simulation time: 0 hr 4 min 15 sec) 
Heartbeat CPU 0 instructions: 110000000 cycles: 96574175 heartbeat IPC: 0.726751 cumulative IPC: 0.726758 (Simulation time: 0 hr 4 min 40 sec) 
Heartbeat CPU 0 instructions: 120000001 cycles: 110334561 heartbeat IPC: 0.726724 cumulative IPC: 0.726753 (Simulation time: 0 hr 5 min 6 sec) 
Heartbeat CPU 0 instructions: 130000000 cycles: 124093809 heartbeat IPC: 0.726784 cumulative IPC: 0.726757 (Simulation time: 0 hr 5 min 32 sec) 
Heartbeat CPU 0 instructions: 140000001 cycles: 137854582 heartbeat IPC: 0.726703 cumulative IPC: 0.726751 (Simulation time: 0 hr 5 min 58 sec) 
Heartbeat CPU 0 instructions: 150000000 cycles: 151614423 heartbeat IPC: 0.726753 cumulative IPC: 0.726751 (Simulation time: 0 hr 6 min 23 sec) 
Heartbeat CPU 0 instructions: 160000000 cycles: 165373674 heartbeat IPC: 0.726784 cumulative IPC: 0.726754 (Simulation time: 0 hr 6 min 49 sec) 
Heartbeat CPU 0 instructions: 170000000 cycles: 179057733 heartbeat IPC: 0.730777 cumulative IPC: 0.727088 (Simulation time: 0 hr 7 min 14 sec) 
Heartbeat CPU 0 instructions: 180000001 cycles: 192587272 heartbeat IPC: 0.739124 cumulative IPC: 0.728 (Simulation time: 0 hr 7 min 40 sec) 
Heartbeat CPU 0 instructions: 190000002 cycles: 206573818 heartbeat IPC: 0.714973 cumulative IPC: 0.727054 (Simulation time: 0 hr 8 min 10 sec) 
Heartbeat CPU 0 instructions: 200000002 cycles: 221484239 heartbeat IPC: 0.670672 cumulative IPC: 0.723001 (Simulation time: 0 hr 8 min 45 sec) 
Heartbeat CPU 0 instructions: 210000002 cycles: 236397722 heartbeat IPC: 0.670534 cumulative IPC: 0.719483 (Simulation time: 0 hr 9 min 21 sec) 
Heartbeat CPU 0 instructions: 220000000 cycles: 251305967 heartbeat IPC: 0.67077 cumulative IPC: 0.716422 (Simulation time: 0 hr 9 min 56 sec) 
Heartbeat CPU 0 instructions: 230000000 cycles: 266233173 heartbeat IPC: 0.669918 cumulative IPC: 0.71367 (Simulation time: 0 hr 10 min 32 sec) 
Heartbeat CPU 0 instructions: 240000000 cycles: 281186177 heartbeat IPC: 0.668762 cumulative IPC: 0.711157 (Simulation time: 0 hr 11 min 8 sec) 
Heartbeat CPU 0 instructions: 250000002 cycles: 296097164 heartbeat IPC: 0.670647 cumulative IPC: 0.709015 (Simulation time: 0 hr 11 min 43 sec) 
Finished CPU 0 instructions: 200000000 cycles: 282081376 cumulative IPC: 0.709015 (Simulation time: 0 hr 11 min 43 sec) 
 Instruction ID: 250000254

ChampSim completed all CPUs

Region of Interest Statistics

CPU 0 cumulative IPC: 0.709015 instructions: 200000000 cycles: 282081376
ITLB SPEC fills:          0  NON-SPEC fills:          0
ITLB Test counter :          0
ITLB Leapfrog:          0
ITLB MSHR merge:          0
ITLB TOTAL     ACCESS:   33665328  HIT:   33665327  MISS:          1  HIT %:        100  MISS %: 2.97042e-06   MPKI: 5e-06
ITLB LOAD TRANSLATION NON_SPEC    ACCESS:   33665328  HIT:   33665327  MISS:          1  HIT %:        100  MISS %: 2.97042e-06   MPKI: 5e-06
ITLB PREFETCH  REQUESTED:          0  ISSUED:          0  USEFUL:          0  USELESS:          0
ITLB USEFUL LOAD PREFETCHES:          0 PREFETCH ISSUED TO LOWER LEVEL:          0  ACCURACY: -nan
ITLB TIMELY PREFETCHES:          0 LATE PREFETCHES: 0 DROPPED PREFETCHES: 0
ITLB COMMIT LATE PREFETCHES: 0 MISSED OPPORTUNITY: 0 LATE IN PQ: 0 UNCOVERED: 0
ITLB COMMIT LATE MSHR PREFETCHES: 0
ITLB MPKI TOTAL: 0 MSHR LATE: 0 PQ LATE: 0 COMMIT LATE: 0 MISSED OPPORTUNITY: 0 UNCOVERED: 0
ITLB PREFETCHES SAME FILL-ORIGIN LEVEL: 0 DIFFERENT FILL-ORIGIN LEVEL: 0
ITLB AVERAGE MISS LATENCY: 964 cycles
ITLB AVERAGE MISS LATENCY LOAD: -nan cycles
ITLB AVERAGE MISS LATENCY PREFETCH: -nan cycles
ITLB AVERAGE MSHR OCCUPANCY: 2.97042e-08
ITLB MSHR FULL: 0
ITLB RQ	ACCESS:   35034502	FORWARD:          0	MERGED:    1369173	TO_CACHE:   33665329

DTLB SPEC fills:          0  NON-SPEC fills:          0
DTLB Test counter :          0
DTLB Leapfrog:          0
DTLB MSHR merge:          0
DTLB TOTAL     ACCESS:   26803054  HIT:   26742400  MISS:      60654  HIT %:    99.7737  MISS %:   0.226295   MPKI: 0.30327
DTLB LOAD TRANSLATION NON_SPEC    ACCESS:   26803054  HIT:   26742400  MISS:      60654  HIT %:    99.7737  MISS %:   0.226295   MPKI: 0.30327
DTLB PREFETCH  REQUESTED:          0  ISSUED:          0  USEFUL:          0  USELESS:          0
DTLB USEFUL LOAD PREFETCHES:          0 PREFETCH ISSUED TO LOWER LEVEL:          0  ACCURACY: -nan
DTLB TIMELY PREFETCHES:          0 LATE PREFETCHES: 0 DROPPED PREFETCHES: 0
DTLB COMMIT LATE PREFETCHES: 0 MISSED OPPORTUNITY: 0 LATE IN PQ: 0 UNCOVERED: 0
DTLB COMMIT LATE MSHR PREFETCHES: 0
DTLB MPKI TOTAL: 0 MSHR LATE: 0 PQ LATE: 0 COMMIT LATE: 0 MISSED OPPORTUNITY: 0 UNCOVERED: 0
DTLB PREFETCHES SAME FILL-ORIGIN LEVEL: 0 DIFFERENT FILL-ORIGIN LEVEL: 0
DTLB AVERAGE MISS LATENCY: 160.996 cycles
DTLB AVERAGE MISS LATENCY LOAD: -nan cycles
DTLB AVERAGE MISS LATENCY PREFETCH: -nan cycles
DTLB AVERAGE MSHR OCCUPANCY: 0.00401503
DTLB MSHR FULL: 0
DTLB RQ	ACCESS:   27967646	FORWARD:          0	MERGED:    1138693	TO_CACHE:   26828953

STLB SPEC fills:          0  NON-SPEC fills:          0
STLB Test counter :          0
STLB Leapfrog:          0
STLB MSHR merge:          0
STLB TOTAL     ACCESS:    3539996  HIT:    3479678  MISS:      60318  HIT %:    98.2961  MISS %:     1.7039   MPKI: 0.30159
STLB LOAD TRANSLATION NON_SPEC    ACCESS:      60655  HIT:        337  MISS:      60318  HIT %:   0.555601  MISS %:    99.4444   MPKI: 0.30159
STLB TRANSLATION FROM L1D PREFETCHER NON_SPEC    ACCESS:    3479341  HIT:    3479341  MISS:          0  HIT %:        100  MISS %:          0   MPKI: 0
STLB PREFETCH  REQUESTED:          0  ISSUED:          0  USEFUL:          0  USELESS:          0
STLB USEFUL LOAD PREFETCHES:          0 PREFETCH ISSUED TO LOWER LEVEL:          0  ACCURACY: -nan
STLB TIMELY PREFETCHES:          0 LATE PREFETCHES: 0 DROPPED PREFETCHES: 0
STLB COMMIT LATE PREFETCHES: 0 MISSED OPPORTUNITY: 0 LATE IN PQ: 0 UNCOVERED: 0
STLB COMMIT LATE MSHR PREFETCHES: 0
STLB MPKI TOTAL: 0 MSHR LATE: 0 PQ LATE: 0 COMMIT LATE: 0 MISSED OPPORTUNITY: 0 UNCOVERED: 0
STLB PREFETCHES SAME FILL-ORIGIN LEVEL: 0 DIFFERENT FILL-ORIGIN LEVEL: 0
STLB AVERAGE MISS LATENCY: 152.858 cycles
STLB AVERAGE MISS LATENCY LOAD: -nan cycles
STLB AVERAGE MISS LATENCY PREFETCH: -nan cycles
STLB AVERAGE MSHR OCCUPANCY: 8.1921e-06
STLB MSHR FULL: 0
STLB RQ	ACCESS:   10369156	FORWARD:          0	MERGED:    6829160	TO_CACHE:    3539996

STLB Hit, L1D data hit: 0
STLB Hit, L2C data hit: 0
STLB Hit, LLC data hit: 0
STLB Hit, LLC data miss: 0
STLB STLB hints to L2: 0
L0D SPEC fills:    7217457  NON-SPEC fills:          0
L0D TimeGuard Request with older TS:      31996 Restricted eviction:       7030 read:       7842
L0D Test counter :          0
L0D Leapfrog:          0
L0D MSHR merge:    2451579
L0D TOTAL     ACCESS:   22140246  HIT:    2271909  MISS:   19868337  HIT %:    10.2614  MISS %:    89.7386   MPKI: 99.3417
L0D LOAD      TOTAL       ACCESS:   22140246  HIT:    2271909  MISS:   19868337  HIT %:    10.2614  MISS %:    89.7386   MPKI: 99.3417
L0D LOAD      NON_SPEC    ACCESS:   12791332  HIT:     147474  MISS:   12643858  HIT %:    1.15292  MISS %:    98.8471   MPKI: 63.2193
L0D LOAD      SPEC        ACCESS:    9348914  HIT:    2124435  MISS:    7224479  HIT %:    22.7239  MISS %:    77.2761   MPKI: 36.1224
L0D PREFETCH  REQUESTED:          0  ISSUED:          0  USEFUL:          0  USELESS:          0
L0D USEFUL LOAD PREFETCHES:          0 PREFETCH ISSUED TO LOWER LEVEL:          0  ACCURACY: -nan
L0D TIMELY PREFETCHES:          0 LATE PREFETCHES: 0 DROPPED PREFETCHES: 0
L0D COMMIT LATE PREFETCHES: 0 MISSED OPPORTUNITY: 0 LATE IN PQ: 0 UNCOVERED: 0
L0D COMMIT LATE MSHR PREFETCHES: 0
L0D MPKI TOTAL: 111.6 MSHR LATE: 0 PQ LATE: 0 COMMIT LATE: 0 MISSED OPPORTUNITY: 0 UNCOVERED: 0
L0D PREFETCHES SAME FILL-ORIGIN LEVEL: 0 DIFFERENT FILL-ORIGIN LEVEL: 0
L0D AVERAGE MISS LATENCY: 11.565 cycles
L0D AVERAGE MISS LATENCY LOAD: 11.565 cycles
L0D AVERAGE MISS LATENCY PREFETCH: -nan cycles
L0D AVERAGE MSHR OCCUPANCY: 0.374467
L0D MSHR FULL: 0
L0D RQ	ACCESS:   35804815	FORWARD:          0	MERGED:   11212991	TO_CACHE:   24591824
L0D WQ	ACCESS:    3375822	FORWARD:          0	MERGED:          0	TO_CACHE:    3375822

L1D SPEC fills:          0  NON-SPEC fills:     250457
L1D Test counter :          0
L1D Leapfrog:          0
L1D MSHR merge:     869041
L1D TOTAL     ACCESS:   30864720  HIT:   26219442  MISS:    4645278  HIT %:    84.9496  MISS %:    15.0504   MPKI: 23.2264
L1D LOAD      TOTAL       ACCESS:   19868169  HIT:   18849971  MISS:    1018198  HIT %:    94.8752  MISS %:    5.12477   MPKI: 5.09099
L1D LOAD      NON_SPEC    ACCESS:   12643690  HIT:   12393233  MISS:     250457  HIT %:    98.0191  MISS %:    1.98089   MPKI: 1.25229
L1D LOAD      SPEC        ACCESS:    7224479  HIT:    6456738  MISS:     767741  HIT %:    89.3731  MISS %:    10.6269   MPKI: 3.83871
L1D RFO       NON_SPEC    ACCESS:    3375823  HIT:    3375821  MISS:          2  HIT %:    99.9999  MISS %: 5.92448e-05   MPKI: 1e-05
L1D PREFETCH  NON_SPEC    ACCESS:    4859128  HIT:    1939340  MISS:    2919788  HIT %:    39.9113  MISS %:    60.0887   MPKI: 14.5989
L1D COMMIT LOAD NON_SPEC    ACCESS:    1958496  HIT:    1957020  MISS:       1476  HIT %:    99.9246  MISS %:   0.075364   MPKI: 0.00738
L1D COMMIT WRITE NON_SPEC    ACCESS:     803104  HIT:      97290  MISS:     705814  HIT %:    12.1142  MISS %:    87.8858   MPKI: 3.52907
L1D PREFETCH  REQUESTED:   11085536  ISSUED:   11085536  USEFUL:    2917286  USELESS:       2502
L1D USEFUL LOAD PREFETCHES:    2917286 PREFETCH ISSUED TO LOWER LEVEL:    3789332  ACCURACY: 76.9868
L1D TIMELY PREFETCHES:    2917286 LATE PREFETCHES: 868873 DROPPED PREFETCHES: 0
L1D COMMIT LATE PREFETCHES: 0 MISSED OPPORTUNITY: 0 LATE IN PQ: 0 UNCOVERED: 0
L1D COMMIT LATE MSHR PREFETCHES: 0
L1D MPKI TOTAL: 5.09183 MSHR LATE: 4.34436 PQ LATE: 0 COMMIT LATE: 0 MISSED OPPORTUNITY: 0 UNCOVERED: 0
L1D PREFETCHES SAME FILL-ORIGIN LEVEL: 3788665 DIFFERENT FILL-ORIGIN LEVEL: 667
L1D AVERAGE MISS LATENCY: 140.037 cycles
L1D AVERAGE MISS LATENCY LOAD: 130.883 cycles
L1D AVERAGE MISS LATENCY PREFETCH: 177.144 cycles
L1D AVERAGE MSHR OCCUPANCY: 2.13761
L1D MSHR FULL: 0
L1D RQ	ACCESS:   24931451	FORWARD:          0	MERGED:    3104064	TO_CACHE:   21827387
L1D WQ	ACCESS:    4178927	FORWARD:          0	MERGED:          0	TO_CACHE:    4178927
L1D PQ	ACCESS:   11085536	FORWARD:          0	MERGED:     777035	TO_CACHE:   10308501

L1D UNIQUE REGIONS ACCESSED: 0
L1D REGIONS CONFLICTS: 0
L1D Cross Page Prefetch Requests: 0
L1D Same Page Prefetch Requests: 15592569
L1D ROI Sum of L1D PQ occupancy: 136871056
L1D PREFETCHES PUSHED FROM L2C: 0
L1I SPEC fills:          0  NON-SPEC fills:          0
L1I Test counter :          0
L1I Leapfrog:          0
L1I MSHR merge:          1
L1I TOTAL     ACCESS:   35034500  HIT:   35034493  MISS:          7  HIT %:        100  MISS %: 1.99803e-05   MPKI: 3.5e-05
L1I LOAD      TOTAL       ACCESS:   35034500  HIT:   35034493  MISS:          7  HIT %:        100  MISS %: 1.99803e-05   MPKI: 3.5e-05
L1I LOAD      NON_SPEC    ACCESS:   35034500  HIT:   35034493  MISS:          7  HIT %:        100  MISS %: 1.99803e-05   MPKI: 3.5e-05
L1I PREFETCH  REQUESTED:          0  ISSUED:          0  USEFUL:          0  USELESS:          0
L1I USEFUL LOAD PREFETCHES:          0 PREFETCH ISSUED TO LOWER LEVEL:          0  ACCURACY: -nan
L1I TIMELY PREFETCHES:          0 LATE PREFETCHES: 0 DROPPED PREFETCHES: 0
L1I COMMIT LATE PREFETCHES: 0 MISSED OPPORTUNITY: 0 LATE IN PQ: 0 UNCOVERED: 0
L1I COMMIT LATE MSHR PREFETCHES: 0
L1I MPKI TOTAL: 4e-05 MSHR LATE: 0 PQ LATE: 0 COMMIT LATE: 0 MISSED OPPORTUNITY: 0 UNCOVERED: 0
L1I PREFETCHES SAME FILL-ORIGIN LEVEL: 0 DIFFERENT FILL-ORIGIN LEVEL: 0
L1I AVERAGE MISS LATENCY: 249.429 cycles
L1I AVERAGE MISS LATENCY LOAD: 249.429 cycles
L1I AVERAGE MISS LATENCY PREFETCH: -nan cycles
L1I AVERAGE MSHR OCCUPANCY: 1.42716e-07
L1I MSHR FULL: 0
L1I RQ	ACCESS:   44007084	FORWARD:          0	MERGED:    8972582	TO_CACHE:   35034502

BTB SPEC fills:          0  NON-SPEC fills:          0
BTB Test counter :          0
BTB Leapfrog:          0
BTB MSHR merge:          0
BTB TOTAL     ACCESS:   30088218  HIT:   30088207  MISS:         11  HIT %:        100  MISS %: 3.65592e-05   MPKI: 5.5e-05
BTB BRANCH_DIRECT_JUMP	ACCESS:    1387297  HIT:    1387295  MISS:          2
BTB BRANCH_INDIRECT	ACCESS:          0  HIT:          0  MISS:          0
BTB BRANCH_CONDITIONAL	ACCESS:   28700921  HIT:   28700912  MISS:          9
BTB BRANCH_DIRECT_CALL	ACCESS:          0  HIT:          0  MISS:          0
BTB BRANCH_INDIRECT_CALL	ACCESS:          0  HIT:          0  MISS:          0
BTB BRANCH_RETURN	ACCESS:          0  HIT:          0  MISS:          0
BTB BRANCH_OTHER ACCESS:          0  HIT:          0  MISS:          0

L2C SPEC fills:          0  NON-SPEC fills:      42269
L2C Test counter :          0
L2C Leapfrog:          0
L2C MSHR merge:          0
L2C TOTAL     ACCESS:    4979828  HIT:    1031654  MISS:    3948174  HIT %:    20.7167  MISS %:    79.2833   MPKI: 19.7409
L2C LOAD      TOTAL       ACCESS:     149331  HIT:      27940  MISS:     121391  HIT %:    18.7101  MISS %:    81.2899   MPKI: 0.606955
L2C LOAD      NON_SPEC    ACCESS:      43183  HIT:        907  MISS:      42276  HIT %:    2.10036  MISS %:    97.8996   MPKI: 0.21138
L2C LOAD      SPEC        ACCESS:     106148  HIT:      27033  MISS:      79115  HIT %:    25.4673  MISS %:    74.5327   MPKI: 0.395575
L2C RFO       NON_SPEC    ACCESS:          2  HIT:          0  MISS:          2  HIT %:          0  MISS %:        100   MPKI: 1e-05
L2C PREFETCH  NON_SPEC    ACCESS:    3788812  HIT:      43168  MISS:    3745644  HIT %:    1.13935  MISS %:    98.8606   MPKI: 18.7282
L2C WRITEBACK NON_SPEC    ACCESS:          3  HIT:          1  MISS:          2  HIT %:    33.3333  MISS %:    66.6667   MPKI: 1e-05
L2C CLEAN_EVICTION NON_SPEC    ACCESS:     738695  HIT:     665123  MISS:      73572  HIT %:    90.0403  MISS %:    9.95973   MPKI: 0.36786
L2C COMMIT LOAD NON_SPEC    ACCESS:       1476  HIT:       1476  MISS:          0  HIT %:        100  MISS %:          0   MPKI: 0
L2C LOAD TRANSLATION NON_SPEC    ACCESS:     301509  HIT:     293946  MISS:       7563  HIT %:    97.4916  MISS %:    2.50838   MPKI: 0.037815
L2C PREFETCH  REQUESTED:          0  ISSUED:          0  USEFUL:      23785  USELESS:    3722131
L2C USEFUL LOAD PREFETCHES:      23785 PREFETCH ISSUED TO LOWER LEVEL:    3745646  ACCURACY: 0.635004
L2C TIMELY PREFETCHES:      23785 LATE PREFETCHES: 0 DROPPED PREFETCHES: 0
L2C COMMIT LATE PREFETCHES: 0 MISSED OPPORTUNITY: 0 LATE IN PQ: 0 UNCOVERED: 0
L2C COMMIT LATE MSHR PREFETCHES: 0
L2C MPKI TOTAL: 0.606955 MSHR LATE: 0 PQ LATE: 0 COMMIT LATE: 0 MISSED OPPORTUNITY: 0 UNCOVERED: 0
L2C PREFETCHES SAME FILL-ORIGIN LEVEL: 667 DIFFERENT FILL-ORIGIN LEVEL: 0
L2C AVERAGE MISS LATENCY: 189.708 cycles
L2C AVERAGE MISS LATENCY LOAD: 161.441 cycles
L2C AVERAGE MISS LATENCY PREFETCH: 194.32 cycles
L2C AVERAGE MSHR OCCUPANCY: 0.57837
L2C MSHR FULL: 0
L2C RQ	ACCESS:     452319	FORWARD:          0	MERGED:          0	TO_CACHE:     452318
L2C WQ	ACCESS:     738699	FORWARD:          1	MERGED:          0	TO_CACHE:     738699
L2C PQ	ACCESS:    3789332	FORWARD:          0	MERGED:          0	TO_CACHE:    3789332

L2C Instructions Evicting Data 7
L2C Translations Evicting Data 7563
L2C Data Evicting Data 3780507
L2C Instructions Evicting Instructions 0
L2C Translations Evicting Instructions 0
L2C Data Evicting Instructions 7
L2C Instructions Evicting Translations 0
L2C Translations Evicting Translations 0
L2C Data Evicting Translations 7401
L2C Dense regions hint from L2: 0
PSCL5 SPEC fills:          0  NON-SPEC fills:          0
PSCL5 Test counter :          0
PSCL5 Leapfrog:          0
PSCL5 MSHR merge:          0
PSCL5 TOTAL     ACCESS:          0  HIT:          0  MISS:          0  HIT %:       -nan  MISS %:       -nan   MPKI: 0
PSCL5 PREFETCH  REQUESTED:          0  ISSUED:          0  USEFUL:          0  USELESS:          0
PSCL5 USEFUL LOAD PREFETCHES:          0 PREFETCH ISSUED TO LOWER LEVEL:          0  ACCURACY: -nan
PSCL5 TIMELY PREFETCHES:          0 LATE PREFETCHES: 0 DROPPED PREFETCHES: 0
PSCL5 COMMIT LATE PREFETCHES: 0 MISSED OPPORTUNITY: 0 LATE IN PQ: 0 UNCOVERED: 0
PSCL5 COMMIT LATE MSHR PREFETCHES: 0
PSCL5 MPKI TOTAL: 0 MSHR LATE: 0 PQ LATE: 0 COMMIT LATE: 0 MISSED OPPORTUNITY: 0 UNCOVERED: 0
PSCL5 PREFETCHES SAME FILL-ORIGIN LEVEL: 0 DIFFERENT FILL-ORIGIN LEVEL: 0

PSCL4 SPEC fills:          0  NON-SPEC fills:          0
PSCL4 Test counter :          0
PSCL4 Leapfrog:          0
PSCL4 MSHR merge:          0
PSCL4 TOTAL     ACCESS:          0  HIT:          0  MISS:          0  HIT %:       -nan  MISS %:       -nan   MPKI: 0
PSCL4 PREFETCH  REQUESTED:          0  ISSUED:          0  USEFUL:          0  USELESS:          0
PSCL4 USEFUL LOAD PREFETCHES:          0 PREFETCH ISSUED TO LOWER LEVEL:          0  ACCURACY: -nan
PSCL4 TIMELY PREFETCHES:          0 LATE PREFETCHES: 0 DROPPED PREFETCHES: 0
PSCL4 COMMIT LATE PREFETCHES: 0 MISSED OPPORTUNITY: 0 LATE IN PQ: 0 UNCOVERED: 0
PSCL4 COMMIT LATE MSHR PREFETCHES: 0
PSCL4 MPKI TOTAL: 0 MSHR LATE: 0 PQ LATE: 0 COMMIT LATE: 0 MISSED OPPORTUNITY: 0 UNCOVERED: 0
PSCL4 PREFETCHES SAME FILL-ORIGIN LEVEL: 0 DIFFERENT FILL-ORIGIN LEVEL: 0

PSCL3 SPEC fills:          0  NON-SPEC fills:          0
PSCL3 Test counter :          0
PSCL3 Leapfrog:          0
PSCL3 MSHR merge:          0
PSCL3 TOTAL     ACCESS:          0  HIT:          0  MISS:          0  HIT %:       -nan  MISS %:       -nan   MPKI: 0
PSCL3 PREFETCH  REQUESTED:          0  ISSUED:          0  USEFUL:          0  USELESS:          0
PSCL3 USEFUL LOAD PREFETCHES:          0 PREFETCH ISSUED TO LOWER LEVEL:          0  ACCURACY: -nan
PSCL3 TIMELY PREFETCHES:          0 LATE PREFETCHES: 0 DROPPED PREFETCHES: 0
PSCL3 COMMIT LATE PREFETCHES: 0 MISSED OPPORTUNITY: 0 LATE IN PQ: 0 UNCOVERED: 0
PSCL3 COMMIT LATE MSHR PREFETCHES: 0
PSCL3 MPKI TOTAL: 0 MSHR LATE: 0 PQ LATE: 0 COMMIT LATE: 0 MISSED OPPORTUNITY: 0 UNCOVERED: 0
PSCL3 PREFETCHES SAME FILL-ORIGIN LEVEL: 0 DIFFERENT FILL-ORIGIN LEVEL: 0

PSCL2 SPEC fills:          0  NON-SPEC fills:          0
PSCL2 Test counter :          0
PSCL2 Leapfrog:          0
PSCL2 MSHR merge:          0
PSCL2 TOTAL     ACCESS:          0  HIT:          0  MISS:          0  HIT %:       -nan  MISS %:       -nan   MPKI: 0
PSCL2 PREFETCH  REQUESTED:          0  ISSUED:          0  USEFUL:          0  USELESS:          0
PSCL2 USEFUL LOAD PREFETCHES:          0 PREFETCH ISSUED TO LOWER LEVEL:          0  ACCURACY: -nan
PSCL2 TIMELY PREFETCHES:          0 LATE PREFETCHES: 0 DROPPED PREFETCHES: 0
PSCL2 COMMIT LATE PREFETCHES: 0 MISSED OPPORTUNITY: 0 LATE IN PQ: 0 UNCOVERED: 0
PSCL2 COMMIT LATE MSHR PREFETCHES: 0
PSCL2 MPKI TOTAL: 0 MSHR LATE: 0 PQ LATE: 0 COMMIT LATE: 0 MISSED OPPORTUNITY: 0 UNCOVERED: 0
PSCL2 PREFETCHES SAME FILL-ORIGIN LEVEL: 0 DIFFERENT FILL-ORIGIN LEVEL: 0

LLC SPEC fills:          0  NON-SPEC fills:      41972
LLC Test counter :          0
LLC Leapfrog:          0
LLC MSHR merge:          0
LLC TOTAL     ACCESS:    4610616  HIT:     664735  MISS:    3945881  HIT %:    14.4175  MISS %:    85.5825   MPKI: 19.7294
LLC LOAD      TOTAL       ACCESS:     121391  HIT:       1247  MISS:     120144  HIT %:    1.02726  MISS %:    98.9727   MPKI: 0.60072
LLC LOAD      NON_SPEC    ACCESS:      42276  HIT:        297  MISS:      41979  HIT %:   0.702526  MISS %:    99.2975   MPKI: 0.209895
LLC LOAD      SPEC        ACCESS:      79115  HIT:        950  MISS:      78165  HIT %:    1.20078  MISS %:    98.7992   MPKI: 0.390825
LLC RFO       NON_SPEC    ACCESS:          2  HIT:          0  MISS:          2  HIT %:          0  MISS %:        100   MPKI: 1e-05
LLC PREFETCH  NON_SPEC    ACCESS:    3745644  HIT:          0  MISS:    3745644  HIT %:          0  MISS %:        100   MPKI: 18.7282
LLC WRITEBACK NON_SPEC    ACCESS:          3  HIT:          1  MISS:          2  HIT %:    33.3333  MISS %:    66.6667   MPKI: 1e-05
LLC CLEAN_EVICTION NON_SPEC    ACCESS:     736013  HIT:     663487  MISS:      72526  HIT %:    90.1461  MISS %:     9.8539   MPKI: 0.36263
LLC LOAD TRANSLATION NON_SPEC    ACCESS:       7563  HIT:          0  MISS:       7563  HIT %:          0  MISS %:        100   MPKI: 0.037815
LLC PREFETCH  REQUESTED:          0  ISSUED:          0  USEFUL:          0  USELESS:    3746352
LLC USEFUL LOAD PREFETCHES:          0 PREFETCH ISSUED TO LOWER LEVEL:    3745644  ACCURACY: 0
LLC TIMELY PREFETCHES:          0 LATE PREFETCHES: 0 DROPPED PREFETCHES: 0
LLC COMMIT LATE PREFETCHES: 0 MISSED OPPORTUNITY: 0 LATE IN PQ: 0 UNCOVERED: 0
LLC COMMIT LATE MSHR PREFETCHES: 0
LLC MPKI TOTAL: 0.60072 MSHR LATE: 0 PQ LATE: 0 COMMIT LATE: 0 MISSED OPPORTUNITY: 0 UNCOVERED: 0
LLC PREFETCHES SAME FILL-ORIGIN LEVEL: 0 DIFFERENT FILL-ORIGIN LEVEL: 0
LLC AVERAGE MISS LATENCY: 160.524 cycles
LLC AVERAGE MISS LATENCY LOAD: 138.728 cycles
LLC AVERAGE MISS LATENCY PREFETCH: 164.303 cycles
LLC AVERAGE MSHR OCCUPANCY: 0.474115
LLC MSHR FULL: 0
LLC RQ	ACCESS:     128956	FORWARD:          0	MERGED:          0	TO_CACHE:     128956
LLC WQ	ACCESS:     736017	FORWARD:          0	MERGED:          0	TO_CACHE:     736017
LLC PQ	ACCESS:    3745646	FORWARD:          0	MERGED:          0	TO_CACHE:    3745646

LLC Dense regions hint to LLC: 0

RAW hits: 1
Loads Generated: 35804822
Loads sent to L1D: 35804815
Stores Generated: 3375822
Stores sent to L1D: 3375822
Major fault: 0 Minor fault: 62153
Allocated PAGES: 62153
Total Load insts: 43892566
Total Non-spec loads: 13149678
Percentage of speculative loads: 70.0412

LeapFrogging counter: 0
Commit hits: 7194117 miss: 15819197
Commit hit %: 31.2607 miss %: 68.7393
Commits not translated: 0
Loads retired: 1018197
Stores retired: 3375822
Cache fills: 1018198
L1D response latency: 130.883 cycles
Load retirement latency: 182.922 cycles
OOO test counter: 0
Discarded buffer inserts: 7194117 hits: 32835 hit %: 0.456415
Filter prediction accuracy: 99.8217
Speculative prefetch buffer size: 0
CPU 0 L1D PC-based stride prefetcher final stats
Degree: 3

DRAM Statistics
 CHANNEL 0
 RQ ROW_BUFFER_HIT:    1512586  ROW_BUFFER_MISS:    2360766
 DBUS_CONGESTED:       6692
 WQ ROW_BUFFER_HIT:     311566  ROW_BUFFER_MISS:     412829  FULL:          0

 AVG_CONGESTED_CYCLE: 4
 All warmup complete: 2
Channel 0 Bank busy for read cycles: 0
Channel 0 Bank busy for write cycles: 0
Channel 0
Rank 0
0banks busy for read cycles: 15109761
0banks busy for write cycles: 31717
1banks busy for read cycles: 96119927
1banks busy for write cycles: 16766067
2banks busy for read cycles: 46044167
2banks busy for write cycles: 17344363
3banks busy for read cycles: 17902638
3banks busy for write cycles: 8560670
4banks busy for read cycles: 16923529
4banks busy for write cycles: 2966584
5banks busy for read cycles: 24106810
5banks busy for write cycles: 1128091
6banks busy for read cycles: 392950
6banks busy for write cycles: 585609
7banks busy for read cycles: 228
7banks busy for write cycles: 2026154
8banks busy for read cycles: 0
8banks busy for write cycles: 16072112

CPU 0 Branch Prediction Accuracy: 99.8669% MPKI: 0.223155 Average ROB Occupancy at Mispredict: 89.1549
Branch types
NOT_BRANCH: 166478520 83.2393%
BRANCH_DIRECT_JUMP: 1387297 0.693649%
BRANCH_INDIRECT: 0 0%
BRANCH_CONDITIONAL: 32134371 16.0672%
BRANCH_DIRECT_CALL: 0 0%
BRANCH_INDIRECT_CALL: 0 0%
BRANCH_RETURN: 0 0%
BRANCH_OTHER: 0 0%

DRAM PAGES: 1048576
Allocated PAGES: 62153
