
*** ChampSim Multicore Out-of-Order Simulator ***

Warmup Instructions: 50000000
Simulation Instructions: 200000000
Number of CPUs: 1
LLC sets: 2048
LLC ways: 16
L0D sets: 16
L0D ways: 2
ROB size: 352
LQ size: 128
SQ size: 72
Secure Berti: OFF
Berti: OFF
Berti Fill: OFF
On commit prefetching: OFF
Hit-based filter: ON
Time-guarding: ON
Free-slotting: ON
Leap-frogging: ON
Train prefetcher on L0D bypass: OFF
No translation penalty for prefetchers: OFF
Prefetch to L0D only: OFF
Prefetch to L1D only: OFF
Clean evictions: ON
Commit loads: ON
Commit write: ON
Fill commit loads to L2C, LLC: ON
DRAM IO FREQUENCY: 6400
ROB SIZE: 352
Off-chip DRAM Size: 4096 MB Channels: 1 Width: 64-bit Data Rate: 6400 MT/s
CPU 0 runs /home/sumon/secure_berti/GhostMinion/../../traces/spec/605.mcf_s-782B.champsimtrace.xz
.xz
BTB has LRU replacement policy
ITLB has LRU replacement policy
DTLB has LRU replacement policy
STLB has LRU replacement policy
L1I has LRU replacement policy
L0D has LRU replacement policy
CPU 0 L1D IP-based stride prefetcher
L1D has LRU replacement policy
L2C has LRU replacement policy
LLC has LRU replacement policy
Heartbeat CPU 0 instructions: 10000001 cycles: 4952791 heartbeat IPC: 2.01906 cumulative IPC: 2.01906 (Simulation time: 0 hr 0 min 46 sec) 
Heartbeat CPU 0 instructions: 20000000 cycles: 9706269 heartbeat IPC: 2.10372 cumulative IPC: 2.06052 (Simulation time: 0 hr 1 min 33 sec) 
Heartbeat CPU 0 instructions: 30000000 cycles: 14459532 heartbeat IPC: 2.10382 cumulative IPC: 2.07476 (Simulation time: 0 hr 2 min 20 sec) 
Heartbeat CPU 0 instructions: 40000002 cycles: 19157042 heartbeat IPC: 2.12879 cumulative IPC: 2.08801 (Simulation time: 0 hr 3 min 5 sec) 
Heartbeat CPU 0 instructions: 50000000 cycles: 23967821 heartbeat IPC: 2.07867 cumulative IPC: 2.08613 (Simulation time: 0 hr 3 min 50 sec) 

Warmup complete CPU 0 instructions: 50000001 cycles: 23967822 (Simulation time: 0 hr 3 min 50 sec) 

Heartbeat CPU 0 instructions: 60000000 cycles: 84854256 heartbeat IPC: 0.16424 cumulative IPC: 0.16424 (Simulation time: 0 hr 5 min 2 sec) 
Heartbeat CPU 0 instructions: 70000002 cycles: 144647145 heartbeat IPC: 0.167244 cumulative IPC: 0.165728 (Simulation time: 0 hr 6 min 14 sec) 
Heartbeat CPU 0 instructions: 80000002 cycles: 204289653 heartbeat IPC: 0.167666 cumulative IPC: 0.166369 (Simulation time: 0 hr 7 min 25 sec) 
Heartbeat CPU 0 instructions: 90000000 cycles: 267644519 heartbeat IPC: 0.157841 cumulative IPC: 0.164152 (Simulation time: 0 hr 8 min 38 sec) 
Heartbeat CPU 0 instructions: 100000001 cycles: 332790628 heartbeat IPC: 0.153501 cumulative IPC: 0.161905 (Simulation time: 0 hr 9 min 49 sec) 
Heartbeat CPU 0 instructions: 110000000 cycles: 399761771 heartbeat IPC: 0.149318 cumulative IPC: 0.159662 (Simulation time: 0 hr 11 min 0 sec) 
Heartbeat CPU 0 instructions: 120000000 cycles: 462294484 heartbeat IPC: 0.159916 cumulative IPC: 0.159698 (Simulation time: 0 hr 12 min 9 sec) 
Heartbeat CPU 0 instructions: 130000000 cycles: 525391658 heartbeat IPC: 0.158486 cumulative IPC: 0.159546 (Simulation time: 0 hr 13 min 18 sec) 
Heartbeat CPU 0 instructions: 140000001 cycles: 586638390 heartbeat IPC: 0.163274 cumulative IPC: 0.159951 (Simulation time: 0 hr 14 min 25 sec) 
Heartbeat CPU 0 instructions: 150000000 cycles: 648842390 heartbeat IPC: 0.160761 cumulative IPC: 0.160032 (Simulation time: 0 hr 15 min 31 sec) 
Heartbeat CPU 0 instructions: 160000002 cycles: 712065385 heartbeat IPC: 0.15817 cumulative IPC: 0.159861 (Simulation time: 0 hr 16 min 37 sec) 
Heartbeat CPU 0 instructions: 170000001 cycles: 776471466 heartbeat IPC: 0.155265 cumulative IPC: 0.159468 (Simulation time: 0 hr 17 min 43 sec) 
Heartbeat CPU 0 instructions: 180000002 cycles: 840154687 heartbeat IPC: 0.157027 cumulative IPC: 0.159277 (Simulation time: 0 hr 18 min 48 sec) 
Heartbeat CPU 0 instructions: 190000003 cycles: 909660178 heartbeat IPC: 0.143874 cumulative IPC: 0.158068 (Simulation time: 0 hr 19 min 54 sec) 
Heartbeat CPU 0 instructions: 200000002 cycles: 979066630 heartbeat IPC: 0.144079 cumulative IPC: 0.157052 (Simulation time: 0 hr 20 min 59 sec) 
Heartbeat CPU 0 instructions: 210000003 cycles: 1046362315 heartbeat IPC: 0.148598 cumulative IPC: 0.156495 (Simulation time: 0 hr 22 min 3 sec) 
Heartbeat CPU 0 instructions: 220000000 cycles: 1112380842 heartbeat IPC: 0.151473 cumulative IPC: 0.156191 (Simulation time: 0 hr 23 min 6 sec) 
Heartbeat CPU 0 instructions: 230000001 cycles: 1178077071 heartbeat IPC: 0.152216 cumulative IPC: 0.155964 (Simulation time: 0 hr 24 min 8 sec) 
Heartbeat CPU 0 instructions: 240000003 cycles: 1242584339 heartbeat IPC: 0.155021 cumulative IPC: 0.155915 (Simulation time: 0 hr 25 min 10 sec) 
Heartbeat CPU 0 instructions: 250000002 cycles: 1305802622 heartbeat IPC: 0.158182 cumulative IPC: 0.156026 (Simulation time: 0 hr 26 min 11 sec) 
Finished CPU 0 instructions: 200000001 cycles: 1281834800 cumulative IPC: 0.156026 (Simulation time: 0 hr 26 min 11 sec) 
 Instruction ID: 250000129

ChampSim completed all CPUs

Region of Interest Statistics

CPU 0 cumulative IPC: 0.156026 instructions: 200000001 cycles: 1281834800
ITLB SPEC fills:          0  NON-SPEC fills:          0
ITLB Test counter :          0
ITLB Leapfrog:          0
ITLB MSHR merge:          0
ITLB TOTAL     ACCESS:   32748079  HIT:   32748079  MISS:          0  HIT %:        100  MISS %:          0   MPKI: 0
ITLB LOAD TRANSLATION NON_SPEC    ACCESS:   32748079  HIT:   32748079  MISS:          0  HIT %:        100  MISS %:          0   MPKI: 0
ITLB PREFETCH  REQUESTED:          0  ISSUED:          0  USEFUL:          0  USELESS:          0
ITLB USEFUL LOAD PREFETCHES:          0 PREFETCH ISSUED TO LOWER LEVEL:          0  ACCURACY: -nan
ITLB TIMELY PREFETCHES:          0 LATE PREFETCHES: 0 DROPPED PREFETCHES: 0
ITLB COMMIT LATE PREFETCHES: 0 MISSED OPPORTUNITY: 0 LATE IN PQ: 0 UNCOVERED: 0
ITLB COMMIT LATE MSHR PREFETCHES: 0
ITLB MPKI TOTAL: 0 MSHR LATE: 0 PQ LATE: 0 COMMIT LATE: 0 MISSED OPPORTUNITY: 0 UNCOVERED: 0
ITLB PREFETCHES SAME FILL-ORIGIN LEVEL: 0 DIFFERENT FILL-ORIGIN LEVEL: 0
ITLB AVERAGE MISS LATENCY: -nan cycles
ITLB AVERAGE MISS LATENCY LOAD: -nan cycles
ITLB AVERAGE MISS LATENCY PREFETCH: -nan cycles
ITLB AVERAGE MSHR OCCUPANCY: 0
ITLB MSHR FULL: 0
ITLB RQ	ACCESS:   33107399	FORWARD:          0	MERGED:     359320	TO_CACHE:   32748079

DTLB SPEC fills:          0  NON-SPEC fills:          0
DTLB Test counter :          0
DTLB Leapfrog:          0
DTLB MSHR merge:          0
DTLB TOTAL     ACCESS:   46138982  HIT:   28514414  MISS:   17624568  HIT %:    61.8011  MISS %:    38.1989   MPKI: 88.1228
DTLB LOAD TRANSLATION NON_SPEC    ACCESS:   46138982  HIT:   28514414  MISS:   17624568  HIT %:    61.8011  MISS %:    38.1989   MPKI: 88.1228
DTLB PREFETCH  REQUESTED:          0  ISSUED:          0  USEFUL:          0  USELESS:          0
DTLB USEFUL LOAD PREFETCHES:          0 PREFETCH ISSUED TO LOWER LEVEL:          0  ACCURACY: -nan
DTLB TIMELY PREFETCHES:          0 LATE PREFETCHES: 0 DROPPED PREFETCHES: 0
DTLB COMMIT LATE PREFETCHES: 0 MISSED OPPORTUNITY: 0 LATE IN PQ: 0 UNCOVERED: 0
DTLB COMMIT LATE MSHR PREFETCHES: 0
DTLB MPKI TOTAL: 0 MSHR LATE: 0 PQ LATE: 0 COMMIT LATE: 0 MISSED OPPORTUNITY: 0 UNCOVERED: 0
DTLB PREFETCHES SAME FILL-ORIGIN LEVEL: 0 DIFFERENT FILL-ORIGIN LEVEL: 0
DTLB AVERAGE MISS LATENCY: 11.639 cycles
DTLB AVERAGE MISS LATENCY LOAD: -nan cycles
DTLB AVERAGE MISS LATENCY PREFETCH: -nan cycles
DTLB AVERAGE MSHR OCCUPANCY: 0.240683
DTLB MSHR FULL: 4.14605e-06
DTLB RQ	ACCESS:   51757089	FORWARD:          0	MERGED:    5206968	TO_CACHE:   46550121

STLB SPEC fills:          0  NON-SPEC fills:          0
STLB Test counter :          0
STLB Leapfrog:          0
STLB MSHR merge:          0
STLB TOTAL     ACCESS:   23766969  HIT:   23528873  MISS:     238096  HIT %:    98.9982  MISS %:    1.00179   MPKI: 1.19048
STLB LOAD TRANSLATION NON_SPEC    ACCESS:   17624568  HIT:   17386472  MISS:     238096  HIT %:    98.6491  MISS %:    1.35093   MPKI: 1.19048
STLB TRANSLATION FROM L1D PREFETCHER NON_SPEC    ACCESS:    6142401  HIT:    6142401  MISS:          0  HIT %:        100  MISS %:          0   MPKI: 0
STLB PREFETCH  REQUESTED:          0  ISSUED:          0  USEFUL:          0  USELESS:          0
STLB USEFUL LOAD PREFETCHES:          0 PREFETCH ISSUED TO LOWER LEVEL:          0  ACCURACY: -nan
STLB TIMELY PREFETCHES:          0 LATE PREFETCHES: 0 DROPPED PREFETCHES: 0
STLB COMMIT LATE PREFETCHES: 0 MISSED OPPORTUNITY: 0 LATE IN PQ: 0 UNCOVERED: 0
STLB COMMIT LATE MSHR PREFETCHES: 0
STLB MPKI TOTAL: 0 MSHR LATE: 0 PQ LATE: 0 COMMIT LATE: 0 MISSED OPPORTUNITY: 0 UNCOVERED: 0
STLB PREFETCHES SAME FILL-ORIGIN LEVEL: 0 DIFFERENT FILL-ORIGIN LEVEL: 0
STLB AVERAGE MISS LATENCY: 185.191 cycles
STLB AVERAGE MISS LATENCY LOAD: -nan cycles
STLB AVERAGE MISS LATENCY PREFETCH: -nan cycles
STLB AVERAGE MSHR OCCUPANCY: 0.0176923
STLB MSHR FULL: 0
STLB RQ	ACCESS:   37069393	FORWARD:          0	MERGED:   13302424	TO_CACHE:   23766969

STLB Hit, L1D data hit: 0
STLB Hit, L2C data hit: 0
STLB Hit, LLC data hit: 0
STLB Hit, LLC data miss: 0
STLB STLB hints to L2: 0
L0D SPEC fills:   30059185  NON-SPEC fills:          0
L0D TimeGuard Request with older TS:     992139 Restricted eviction:     601971 read:     127029
L0D Test counter :          0
L0D Leapfrog:          0
L0D MSHR merge:    5426240
L0D TOTAL     ACCESS:   42752404  HIT:    1584944  MISS:   41167460  HIT %:    3.70726  MISS %:    96.2927   MPKI: 205.837
L0D LOAD      TOTAL       ACCESS:   42752404  HIT:    1584944  MISS:   41167460  HIT %:    3.70726  MISS %:    96.2927   MPKI: 205.837
L0D LOAD      NON_SPEC    ACCESS:   10765674  HIT:     259363  MISS:   10506311  HIT %:    2.40917  MISS %:    97.5908   MPKI: 52.5316
L0D LOAD      SPEC        ACCESS:   31986730  HIT:    1325581  MISS:   30661149  HIT %:    4.14416  MISS %:    95.8558   MPKI: 153.306
L0D PREFETCH  REQUESTED:          0  ISSUED:          0  USEFUL:          0  USELESS:          0
L0D USEFUL LOAD PREFETCHES:          0 PREFETCH ISSUED TO LOWER LEVEL:          0  ACCURACY: -nan
L0D TIMELY PREFETCHES:          0 LATE PREFETCHES: 0 DROPPED PREFETCHES: 0
L0D COMMIT LATE PREFETCHES: 0 MISSED OPPORTUNITY: 0 LATE IN PQ: 0 UNCOVERED: 0
L0D COMMIT LATE MSHR PREFETCHES: 0
L0D MPKI TOTAL: 232.968 MSHR LATE: 0 PQ LATE: 0 COMMIT LATE: 0 MISSED OPPORTUNITY: 0 UNCOVERED: 0
L0D PREFETCHES SAME FILL-ORIGIN LEVEL: 0 DIFFERENT FILL-ORIGIN LEVEL: 0
L0D AVERAGE MISS LATENCY: 72.9985 cycles
L0D AVERAGE MISS LATENCY LOAD: 72.9985 cycles
L0D AVERAGE MISS LATENCY PREFETCH: -nan cycles
L0D AVERAGE MSHR OCCUPANCY: 4.9797
L0D MSHR FULL: 0.454809
L0D RQ	ACCESS:   71282422	FORWARD:          0	MERGED:   23103782	TO_CACHE:   48178640
L0D WQ	ACCESS:    3578449	FORWARD:          0	MERGED:          0	TO_CACHE:    3578449

L1D SPEC fills:          0  NON-SPEC fills:    6855301
L1D Test counter :          0
L1D Leapfrog:          0
L1D MSHR merge:    3468489
L1D TOTAL     ACCESS:   81928770  HIT:   30817495  MISS:   51111275  HIT %:     37.615  MISS %:     62.385   MPKI: 255.556
L1D LOAD      TOTAL       ACCESS:   41156148  HIT:   14218993  MISS:   26937155  HIT %:    34.5489  MISS %:    65.4511   MPKI: 134.686
L1D LOAD      NON_SPEC    ACCESS:   10504267  HIT:    3648966  MISS:    6855301  HIT %:    34.7379  MISS %:    65.2621   MPKI: 34.2765
L1D LOAD      SPEC        ACCESS:   30651881  HIT:   10570027  MISS:   20081854  HIT %:    34.4841  MISS %:    65.5159   MPKI: 100.409
L1D RFO       NON_SPEC    ACCESS:    3281776  HIT:    3223805  MISS:      57971  HIT %:    98.2335  MISS %:    1.76645   MPKI: 0.289855
L1D PREFETCH  NON_SPEC    ACCESS:    8376516  HIT:    4255664  MISS:    4120852  HIT %:    50.8047  MISS %:    49.1953   MPKI: 20.6043
L1D COMMIT LOAD NON_SPEC    ACCESS:   10007831  HIT:    9047184  MISS:     960647  HIT %:     90.401  MISS %:    9.59895   MPKI: 4.80323
L1D COMMIT WRITE NON_SPEC    ACCESS:   19106499  HIT:      71849  MISS:   19034650  HIT %:   0.376045  MISS %:     99.624   MPKI: 95.1732
L1D PREFETCH  REQUESTED:   23212891  ISSUED:   23212891  USEFUL:    4054495  USELESS:      66338
L1D USEFUL LOAD PREFETCHES:    4054495 PREFETCH ISSUED TO LOWER LEVEL:    8991050  ACCURACY: 45.0948
L1D TIMELY PREFETCHES:    4054495 LATE PREFETCHES: 3457208 DROPPED PREFETCHES: 0
L1D COMMIT LATE PREFETCHES: 0 MISSED OPPORTUNITY: 0 LATE IN PQ: 0 UNCOVERED: 0
L1D COMMIT LATE MSHR PREFETCHES: 0
L1D MPKI TOTAL: 134.742 MSHR LATE: 17.286 PQ LATE: 0 COMMIT LATE: 0 MISSED OPPORTUNITY: 0 UNCOVERED: 0
L1D PREFETCHES SAME FILL-ORIGIN LEVEL: 7578100 DIFFERENT FILL-ORIGIN LEVEL: 1412950
L1D AVERAGE MISS LATENCY: 68.1364 cycles
L1D AVERAGE MISS LATENCY LOAD: 97.0473 cycles
L1D AVERAGE MISS LATENCY PREFETCH: 194.238 cycles
L1D AVERAGE MSHR OCCUPANCY: 2.77511
L1D MSHR FULL: 4.42478e-05
L1D RQ	ACCESS:   59773568	FORWARD:          0	MERGED:    8549588	TO_CACHE:   51209473
L1D WQ	ACCESS:   22692122	FORWARD:      14507	MERGED:     156136	TO_CACHE:   22535986
L1D PQ	ACCESS:   23212891	FORWARD:          0	MERGED:    3768066	TO_CACHE:   19444825

L1D UNIQUE REGIONS ACCESSED: 0
L1D REGIONS CONFLICTS: 0
L1D Cross Page Prefetch Requests: 0
L1D Same Page Prefetch Requests: 28798190
L1D ROI Sum of L1D PQ occupancy: 255328372
L1D PREFETCHES PUSHED FROM L2C: 0
L1I SPEC fills:          0  NON-SPEC fills:          0
L1I Test counter :          0
L1I Leapfrog:          0
L1I MSHR merge:          0
L1I TOTAL     ACCESS:   33107398  HIT:   33107398  MISS:          0  HIT %:        100  MISS %:          0   MPKI: 0
L1I LOAD      TOTAL       ACCESS:   33107398  HIT:   33107398  MISS:          0  HIT %:        100  MISS %:          0   MPKI: 0
L1I LOAD      NON_SPEC    ACCESS:   33107398  HIT:   33107398  MISS:          0  HIT %:        100  MISS %:          0   MPKI: 0
L1I PREFETCH  REQUESTED:          0  ISSUED:          0  USEFUL:          0  USELESS:          0
L1I USEFUL LOAD PREFETCHES:          0 PREFETCH ISSUED TO LOWER LEVEL:          0  ACCURACY: -nan
L1I TIMELY PREFETCHES:          0 LATE PREFETCHES: 0 DROPPED PREFETCHES: 0
L1I COMMIT LATE PREFETCHES: 0 MISSED OPPORTUNITY: 0 LATE IN PQ: 0 UNCOVERED: 0
L1I COMMIT LATE MSHR PREFETCHES: 0
L1I MPKI TOTAL: 0 MSHR LATE: 0 PQ LATE: 0 COMMIT LATE: 0 MISSED OPPORTUNITY: 0 UNCOVERED: 0
L1I PREFETCHES SAME FILL-ORIGIN LEVEL: 0 DIFFERENT FILL-ORIGIN LEVEL: 0
L1I AVERAGE MISS LATENCY: -nan cycles
L1I AVERAGE MISS LATENCY LOAD: -nan cycles
L1I AVERAGE MISS LATENCY PREFETCH: -nan cycles
L1I AVERAGE MSHR OCCUPANCY: 0
L1I MSHR FULL: 0
L1I RQ	ACCESS:   43613706	FORWARD:          0	MERGED:   10506307	TO_CACHE:   33107399

BTB SPEC fills:          0  NON-SPEC fills:          0
BTB Test counter :          0
BTB Leapfrog:          0
BTB MSHR merge:          0
BTB TOTAL     ACCESS:   60210745  HIT:   60015900  MISS:     194845  HIT %:    99.6764  MISS %:   0.323605   MPKI: 0.974225
BTB BRANCH_DIRECT_JUMP	ACCESS:    7722186  HIT:    7722149  MISS:         37
BTB BRANCH_INDIRECT	ACCESS:          0  HIT:          0  MISS:          0
BTB BRANCH_CONDITIONAL	ACCESS:   51083203  HIT:   51083121  MISS:         82
BTB BRANCH_DIRECT_CALL	ACCESS:     648845  HIT:     648827  MISS:         18
BTB BRANCH_INDIRECT_CALL	ACCESS:      53834  HIT:      53826  MISS:          8
BTB BRANCH_RETURN	ACCESS:     702677  HIT:     507977  MISS:     194700
BTB BRANCH_OTHER ACCESS:          0  HIT:          0  MISS:          0

L2C SPEC fills:          0  NON-SPEC fills:    5688602
L2C Test counter :          0
L2C Leapfrog:          0
L2C MSHR merge:     293040
L2C TOTAL     ACCESS:   50871003  HIT:    8845908  MISS:   42025095  HIT %:    17.3889  MISS %:    82.6111   MPKI: 210.125
L2C LOAD      TOTAL       ACCESS:   23479800  HIT:    3610818  MISS:   19868982  HIT %:    15.3784  MISS %:    84.6216   MPKI: 99.3449
L2C LOAD      NON_SPEC    ACCESS:    6826002  HIT:    1137400  MISS:    5688602  HIT %:    16.6628  MISS %:    83.3372   MPKI: 28.443
L2C LOAD      SPEC        ACCESS:   16653798  HIT:    2473418  MISS:   14180380  HIT %:     14.852  MISS %:     85.148   MPKI: 70.9019
L2C RFO       NON_SPEC    ACCESS:      57893  HIT:       6909  MISS:      50984  HIT %:    11.9341  MISS %:    88.0659   MPKI: 0.25492
L2C PREFETCH  NON_SPEC    ACCESS:    8149140  HIT:     276226  MISS:    7872914  HIT %:    3.38963  MISS %:    96.6104   MPKI: 39.3646
L2C WRITEBACK NON_SPEC    ACCESS:     236298  HIT:     236298  MISS:          0  HIT %:        100  MISS %:          0   MPKI: 0
L2C CLEAN_EVICTION NON_SPEC    ACCESS:   16797218  HIT:    3340648  MISS:   13456570  HIT %:    19.8881  MISS %:    80.1119   MPKI: 67.2828
L2C COMMIT LOAD NON_SPEC    ACCESS:     960617  HIT:     270769  MISS:     689848  HIT %:     28.187  MISS %:     71.813   MPKI: 3.44924
L2C LOAD TRANSLATION NON_SPEC    ACCESS:    1190037  HIT:    1104240  MISS:      85797  HIT %:    92.7904  MISS %:    7.20961   MPKI: 0.428985
L2C PREFETCH  REQUESTED:          0  ISSUED:          0  USEFUL:     441427  USELESS:    7431989
L2C USEFUL LOAD PREFETCHES:     441427 PREFETCH ISSUED TO LOWER LEVEL:    8165954  ACCURACY: 5.4057
L2C TIMELY PREFETCHES:     441427 LATE PREFETCHES: 293040 DROPPED PREFETCHES: 0
L2C COMMIT LATE PREFETCHES: 0 MISSED OPPORTUNITY: 0 LATE IN PQ: 0 UNCOVERED: 0
L2C COMMIT LATE MSHR PREFETCHES: 0
L2C MPKI TOTAL: 99.3449 MSHR LATE: 1.4652 PQ LATE: 0 COMMIT LATE: 0 MISSED OPPORTUNITY: 0 UNCOVERED: 0
L2C PREFETCHES SAME FILL-ORIGIN LEVEL: 1023322 DIFFERENT FILL-ORIGIN LEVEL: 0
L2C AVERAGE MISS LATENCY: 80.2351 cycles
L2C AVERAGE MISS LATENCY LOAD: 90.1007 cycles
L2C AVERAGE MISS LATENCY PREFETCH: 192.865 cycles
L2C AVERAGE MSHR OCCUPANCY: 3.21319
L2C MSHR FULL: 0
L2C RQ	ACCESS:   25688561	FORWARD:          0	MERGED:          0	TO_CACHE:   25688347
L2C WQ	ACCESS:   17033517	FORWARD:        215	MERGED:          1	TO_CACHE:   17033516
L2C PQ	ACCESS:    8991050	FORWARD:          0	MERGED:         10	TO_CACHE:    8991039

L2C Instructions Evicting Data 0
L2C Translations Evicting Data 85617
L2C Data Evicting Data 14257748
L2C Instructions Evicting Instructions 0
L2C Translations Evicting Instructions 0
L2C Data Evicting Instructions 0
L2C Instructions Evicting Translations 0
L2C Translations Evicting Translations 180
L2C Data Evicting Translations 44600
L2C Dense regions hint from L2: 0
PSCL5 SPEC fills:          0  NON-SPEC fills:          0
PSCL5 Test counter :          0
PSCL5 Leapfrog:          0
PSCL5 MSHR merge:          0
PSCL5 TOTAL     ACCESS:          0  HIT:          0  MISS:          0  HIT %:       -nan  MISS %:       -nan   MPKI: 0
PSCL5 PREFETCH  REQUESTED:          0  ISSUED:          0  USEFUL:          0  USELESS:          0
PSCL5 USEFUL LOAD PREFETCHES:          0 PREFETCH ISSUED TO LOWER LEVEL:          0  ACCURACY: -nan
PSCL5 TIMELY PREFETCHES:          0 LATE PREFETCHES: 0 DROPPED PREFETCHES: 0
PSCL5 COMMIT LATE PREFETCHES: 0 MISSED OPPORTUNITY: 0 LATE IN PQ: 0 UNCOVERED: 0
PSCL5 COMMIT LATE MSHR PREFETCHES: 0
PSCL5 MPKI TOTAL: 0 MSHR LATE: 0 PQ LATE: 0 COMMIT LATE: 0 MISSED OPPORTUNITY: 0 UNCOVERED: 0
PSCL5 PREFETCHES SAME FILL-ORIGIN LEVEL: 0 DIFFERENT FILL-ORIGIN LEVEL: 0

PSCL4 SPEC fills:          0  NON-SPEC fills:          0
PSCL4 Test counter :          0
PSCL4 Leapfrog:          0
PSCL4 MSHR merge:          0
PSCL4 TOTAL     ACCESS:          0  HIT:          0  MISS:          0  HIT %:       -nan  MISS %:       -nan   MPKI: 0
PSCL4 PREFETCH  REQUESTED:          0  ISSUED:          0  USEFUL:          0  USELESS:          0
PSCL4 USEFUL LOAD PREFETCHES:          0 PREFETCH ISSUED TO LOWER LEVEL:          0  ACCURACY: -nan
PSCL4 TIMELY PREFETCHES:          0 LATE PREFETCHES: 0 DROPPED PREFETCHES: 0
PSCL4 COMMIT LATE PREFETCHES: 0 MISSED OPPORTUNITY: 0 LATE IN PQ: 0 UNCOVERED: 0
PSCL4 COMMIT LATE MSHR PREFETCHES: 0
PSCL4 MPKI TOTAL: 0 MSHR LATE: 0 PQ LATE: 0 COMMIT LATE: 0 MISSED OPPORTUNITY: 0 UNCOVERED: 0
PSCL4 PREFETCHES SAME FILL-ORIGIN LEVEL: 0 DIFFERENT FILL-ORIGIN LEVEL: 0

PSCL3 SPEC fills:          0  NON-SPEC fills:          0
PSCL3 Test counter :          0
PSCL3 Leapfrog:          0
PSCL3 MSHR merge:          0
PSCL3 TOTAL     ACCESS:          0  HIT:          0  MISS:          0  HIT %:       -nan  MISS %:       -nan   MPKI: 0
PSCL3 PREFETCH  REQUESTED:          0  ISSUED:          0  USEFUL:          0  USELESS:          0
PSCL3 USEFUL LOAD PREFETCHES:          0 PREFETCH ISSUED TO LOWER LEVEL:          0  ACCURACY: -nan
PSCL3 TIMELY PREFETCHES:          0 LATE PREFETCHES: 0 DROPPED PREFETCHES: 0
PSCL3 COMMIT LATE PREFETCHES: 0 MISSED OPPORTUNITY: 0 LATE IN PQ: 0 UNCOVERED: 0
PSCL3 COMMIT LATE MSHR PREFETCHES: 0
PSCL3 MPKI TOTAL: 0 MSHR LATE: 0 PQ LATE: 0 COMMIT LATE: 0 MISSED OPPORTUNITY: 0 UNCOVERED: 0
PSCL3 PREFETCHES SAME FILL-ORIGIN LEVEL: 0 DIFFERENT FILL-ORIGIN LEVEL: 0

PSCL2 SPEC fills:          0  NON-SPEC fills:          0
PSCL2 Test counter :          0
PSCL2 Leapfrog:          0
PSCL2 MSHR merge:          0
PSCL2 TOTAL     ACCESS:          0  HIT:          0  MISS:          0  HIT %:       -nan  MISS %:       -nan   MPKI: 0
PSCL2 PREFETCH  REQUESTED:          0  ISSUED:          0  USEFUL:          0  USELESS:          0
PSCL2 USEFUL LOAD PREFETCHES:          0 PREFETCH ISSUED TO LOWER LEVEL:          0  ACCURACY: -nan
PSCL2 TIMELY PREFETCHES:          0 LATE PREFETCHES: 0 DROPPED PREFETCHES: 0
PSCL2 COMMIT LATE PREFETCHES: 0 MISSED OPPORTUNITY: 0 LATE IN PQ: 0 UNCOVERED: 0
PSCL2 COMMIT LATE MSHR PREFETCHES: 0
PSCL2 MPKI TOTAL: 0 MSHR LATE: 0 PQ LATE: 0 COMMIT LATE: 0 MISSED OPPORTUNITY: 0 UNCOVERED: 0
PSCL2 PREFETCHES SAME FILL-ORIGIN LEVEL: 0 DIFFERENT FILL-ORIGIN LEVEL: 0

LLC SPEC fills:          0  NON-SPEC fills:    1491924
LLC Test counter :          0
LLC Leapfrog:          0
LLC MSHR merge:          0
LLC TOTAL     ACCESS:   45559497  HIT:   23469693  MISS:   22089804  HIT %:    51.5144  MISS %:    48.4856   MPKI: 110.449
LLC LOAD      TOTAL       ACCESS:   19575615  HIT:   12068920  MISS:    7506695  HIT %:    61.6528  MISS %:    38.3472   MPKI: 37.5335
LLC LOAD      NON_SPEC    ACCESS:    5688415  HIT:    4196491  MISS:    1491924  HIT %:    73.7726  MISS %:    26.2274   MPKI: 7.45962
LLC LOAD      SPEC        ACCESS:   13887200  HIT:    7872429  MISS:    6014771  HIT %:    56.6884  MISS %:    43.3116   MPKI: 30.0739
LLC RFO       NON_SPEC    ACCESS:      50984  HIT:      42998  MISS:       7986  HIT %:    84.3363  MISS %:    15.6637   MPKI: 0.03993
LLC PREFETCH  NON_SPEC    ACCESS:    8165954  HIT:      54185  MISS:    8111769  HIT %:   0.663548  MISS %:    99.3365   MPKI: 40.5588
LLC WRITEBACK NON_SPEC    ACCESS:     220215  HIT:     220089  MISS:        126  HIT %:    99.9428  MISS %:  0.0572168   MPKI: 0.00063
LLC CLEAN_EVICTION NON_SPEC    ACCESS:   16771244  HIT:   10506960  MISS:    6264284  HIT %:    62.6487  MISS %:    37.3513   MPKI: 31.3214
LLC COMMIT LOAD NON_SPEC    ACCESS:     689688  HIT:     534445  MISS:     155243  HIT %:    77.4908  MISS %:    22.5092   MPKI: 0.776215
LLC LOAD TRANSLATION NON_SPEC    ACCESS:      85797  HIT:      42096  MISS:      43701  HIT %:    49.0647  MISS %:    50.9353   MPKI: 0.218505
LLC PREFETCH  REQUESTED:          0  ISSUED:          0  USEFUL:      26933  USELESS:    8086187
LLC USEFUL LOAD PREFETCHES:      26933 PREFETCH ISSUED TO LOWER LEVEL:    8111769  ACCURACY: 0.332024
LLC TIMELY PREFETCHES:      26933 LATE PREFETCHES: 0 DROPPED PREFETCHES: 0
LLC COMMIT LATE PREFETCHES: 0 MISSED OPPORTUNITY: 0 LATE IN PQ: 0 UNCOVERED: 0
LLC COMMIT LATE MSHR PREFETCHES: 0
LLC MPKI TOTAL: 37.5335 MSHR LATE: 0 PQ LATE: 0 COMMIT LATE: 0 MISSED OPPORTUNITY: 0 UNCOVERED: 0
LLC PREFETCHES SAME FILL-ORIGIN LEVEL: 0 DIFFERENT FILL-ORIGIN LEVEL: 0
LLC AVERAGE MISS LATENCY: 120.018 cycles
LLC AVERAGE MISS LATENCY LOAD: 171.639 cycles
LLC AVERAGE MISS LATENCY PREFETCH: 163.308 cycles
LLC AVERAGE MSHR OCCUPANCY: 2.34289
LLC MSHR FULL: 0
LLC RQ	ACCESS:   20402571	FORWARD:          0	MERGED:          0	TO_CACHE:   20402084
LLC WQ	ACCESS:   16991459	FORWARD:        487	MERGED:          0	TO_CACHE:   16991459
LLC PQ	ACCESS:    8165954	FORWARD:          0	MERGED:          0	TO_CACHE:    8165954

LLC Dense regions hint to LLC: 0

RAW hits: 470082
Loads Generated: 71752506
Loads sent to L1D: 71282422
Stores Generated: 3578449
Stores sent to L1D: 3578449
Major fault: 0 Minor fault: 219750
Allocated PAGES: 219750
Total Load insts: 89108261
Total Non-spec loads: 11369507
Percentage of speculative loads: 87.2408

LeapFrogging counter: 25362977
Commit hits: 29425896 miss: 31062329
Commit hit %: 48.6473 miss %: 51.3527
Commits not translated: 0
Loads retired: 26937155
Stores retired: 3578449
Cache fills: 26937155
L1D response latency: 97.0473 cycles
Load retirement latency: 272.937 cycles
OOO test counter: 0
Discarded buffer inserts: 29425896 hits: 24975 hit %: 0.0848742
Filter prediction accuracy: 99.7213
Speculative prefetch buffer size: 0
CPU 0 L1D PC-based stride prefetcher final stats
Degree: 3

DRAM Statistics
 CHANNEL 0
 RQ ROW_BUFFER_HIT:    2425946  ROW_BUFFER_MISS:   13396131
 DBUS_CONGESTED:       7333
 WQ ROW_BUFFER_HIT:    2680632  ROW_BUFFER_MISS:    7594127  FULL:        119

 AVG_CONGESTED_CYCLE: 4
 All warmup complete: 2
Channel 0 Bank busy for read cycles: 0
Channel 0 Bank busy for write cycles: 0
Channel 0
Rank 0
0banks busy for read cycles: 97710127
0banks busy for write cycles: 188157
1banks busy for read cycles: 291043639
1banks busy for write cycles: 28931353
2banks busy for read cycles: 161232691
2banks busy for write cycles: 27528377
3banks busy for read cycles: 93260861
3banks busy for write cycles: 30249213
4banks busy for read cycles: 79956618
4banks busy for write cycles: 33856543
5banks busy for read cycles: 52717950
5banks busy for write cycles: 38485395
6banks busy for read cycles: 39629673
6banks busy for write cycles: 46920581
7banks busy for read cycles: 33182889
7banks busy for write cycles: 69577556
8banks busy for read cycles: 23403500
8banks busy for write cycles: 133959678

CPU 0 Branch Prediction Accuracy: 96.9705% MPKI: 9.2675 Average ROB Occupancy at Mispredict: 56.2773
Branch types
NOT_BRANCH: 138818916 69.4095%
BRANCH_DIRECT_JUMP: 7722186 3.86109%
BRANCH_INDIRECT: 0 0%
BRANCH_CONDITIONAL: 52053293 26.0266%
BRANCH_DIRECT_CALL: 648845 0.324422%
BRANCH_INDIRECT_CALL: 53834 0.026917%
BRANCH_RETURN: 702677 0.351338%
BRANCH_OTHER: 0 0%

DRAM PAGES: 1048576
Allocated PAGES: 219750
