
*** ChampSim Multicore Out-of-Order Simulator ***

Warmup Instructions: 50000000
Simulation Instructions: 200000000
Number of CPUs: 1
LLC sets: 2048
LLC ways: 16
L0D sets: 16
L0D ways: 2
ROB size: 352
LQ size: 128
SQ size: 72
Secure Berti: OFF
Berti: OFF
Berti Fill: OFF
On commit prefetching: OFF
Hit-based filter: ON
Time-guarding: ON
Free-slotting: ON
Leap-frogging: ON
Train prefetcher on L0D bypass: OFF
No translation penalty for prefetchers: OFF
Prefetch to L0D only: OFF
Prefetch to L1D only: OFF
Clean evictions: ON
Commit loads: ON
Commit write: ON
Fill commit loads to L2C, LLC: ON
DRAM IO FREQUENCY: 6400
ROB SIZE: 352
Off-chip DRAM Size: 4096 MB Channels: 1 Width: 64-bit Data Rate: 6400 MT/s
CPU 0 runs /home/sumon/secure_berti/GhostMinion/../../traces/spec/605.mcf_s-1152B.champsimtrace.xz
.xz
BTB has LRU replacement policy
ITLB has LRU replacement policy
DTLB has LRU replacement policy
STLB has LRU replacement policy
L1I has LRU replacement policy
L0D has LRU replacement policy
CPU 0 L1D IP-based stride prefetcher
L1D has LRU replacement policy
L2C has LRU replacement policy
LLC has LRU replacement policy
Heartbeat CPU 0 instructions: 10000001 cycles: 5579892 heartbeat IPC: 1.79215 cumulative IPC: 1.79215 (Simulation time: 0 hr 0 min 42 sec) 
Heartbeat CPU 0 instructions: 20000000 cycles: 11115185 heartbeat IPC: 1.80659 cumulative IPC: 1.79934 (Simulation time: 0 hr 1 min 24 sec) 
Heartbeat CPU 0 instructions: 30000000 cycles: 16672973 heartbeat IPC: 1.79928 cumulative IPC: 1.79932 (Simulation time: 0 hr 2 min 7 sec) 
Heartbeat CPU 0 instructions: 40000001 cycles: 22247276 heartbeat IPC: 1.79395 cumulative IPC: 1.79797 (Simulation time: 0 hr 2 min 49 sec) 
Heartbeat CPU 0 instructions: 50000001 cycles: 27807556 heartbeat IPC: 1.79847 cumulative IPC: 1.79807 (Simulation time: 0 hr 3 min 30 sec) 

Warmup complete CPU 0 instructions: 50000001 cycles: 27807556 (Simulation time: 0 hr 3 min 30 sec) 

Heartbeat CPU 0 instructions: 60000001 cycles: 63686660 heartbeat IPC: 0.278714 cumulative IPC: 0.278714 (Simulation time: 0 hr 4 min 17 sec) 
Heartbeat CPU 0 instructions: 70000000 cycles: 100030334 heartbeat IPC: 0.275151 cumulative IPC: 0.276921 (Simulation time: 0 hr 5 min 6 sec) 
Heartbeat CPU 0 instructions: 80000001 cycles: 135918508 heartbeat IPC: 0.278643 cumulative IPC: 0.277493 (Simulation time: 0 hr 5 min 53 sec) 
Heartbeat CPU 0 instructions: 90000003 cycles: 172070053 heartbeat IPC: 0.276613 cumulative IPC: 0.277272 (Simulation time: 0 hr 6 min 41 sec) 
Heartbeat CPU 0 instructions: 100000001 cycles: 208387203 heartbeat IPC: 0.275352 cumulative IPC: 0.276886 (Simulation time: 0 hr 7 min 30 sec) 
Heartbeat CPU 0 instructions: 110000000 cycles: 244779399 heartbeat IPC: 0.274784 cumulative IPC: 0.276534 (Simulation time: 0 hr 8 min 20 sec) 
Heartbeat CPU 0 instructions: 120000002 cycles: 281370608 heartbeat IPC: 0.27329 cumulative IPC: 0.276065 (Simulation time: 0 hr 9 min 10 sec) 
Heartbeat CPU 0 instructions: 130000002 cycles: 318569559 heartbeat IPC: 0.268825 cumulative IPC: 0.275139 (Simulation time: 0 hr 10 min 2 sec) 
Heartbeat CPU 0 instructions: 140000003 cycles: 356304851 heartbeat IPC: 0.265004 cumulative IPC: 0.273975 (Simulation time: 0 hr 10 min 54 sec) 
Heartbeat CPU 0 instructions: 150000001 cycles: 394252054 heartbeat IPC: 0.263524 cumulative IPC: 0.272893 (Simulation time: 0 hr 11 min 47 sec) 
Heartbeat CPU 0 instructions: 160000000 cycles: 432877288 heartbeat IPC: 0.258898 cumulative IPC: 0.271558 (Simulation time: 0 hr 12 min 40 sec) 
Heartbeat CPU 0 instructions: 170000001 cycles: 472627987 heartbeat IPC: 0.251568 cumulative IPC: 0.269772 (Simulation time: 0 hr 13 min 34 sec) 
Heartbeat CPU 0 instructions: 180000003 cycles: 512659507 heartbeat IPC: 0.249803 cumulative IPC: 0.268123 (Simulation time: 0 hr 14 min 28 sec) 
Heartbeat CPU 0 instructions: 190000002 cycles: 553247905 heartbeat IPC: 0.246376 cumulative IPC: 0.266443 (Simulation time: 0 hr 15 min 22 sec) 
Heartbeat CPU 0 instructions: 200000001 cycles: 594184313 heartbeat IPC: 0.244281 cumulative IPC: 0.264841 (Simulation time: 0 hr 16 min 14 sec) 
Heartbeat CPU 0 instructions: 210000002 cycles: 634584357 heartbeat IPC: 0.247525 cumulative IPC: 0.263688 (Simulation time: 0 hr 17 min 4 sec) 
Heartbeat CPU 0 instructions: 220000000 cycles: 674005560 heartbeat IPC: 0.253671 cumulative IPC: 0.263077 (Simulation time: 0 hr 17 min 52 sec) 
Heartbeat CPU 0 instructions: 230000002 cycles: 713323036 heartbeat IPC: 0.25434 cumulative IPC: 0.262576 (Simulation time: 0 hr 18 min 40 sec) 
Heartbeat CPU 0 instructions: 240000000 cycles: 756525228 heartbeat IPC: 0.23147 cumulative IPC: 0.260732 (Simulation time: 0 hr 19 min 28 sec) 
Heartbeat CPU 0 instructions: 250000001 cycles: 797069505 heartbeat IPC: 0.246644 cumulative IPC: 0.259989 (Simulation time: 0 hr 20 min 15 sec) 
Finished CPU 0 instructions: 200000000 cycles: 769261949 cumulative IPC: 0.259989 (Simulation time: 0 hr 20 min 15 sec) 
 Instruction ID: 250000117

ChampSim completed all CPUs

Region of Interest Statistics

CPU 0 cumulative IPC: 0.259989 instructions: 200000000 cycles: 769261949
ITLB SPEC fills:          0  NON-SPEC fills:          0
ITLB Test counter :          0
ITLB Leapfrog:          0
ITLB MSHR merge:          0
ITLB TOTAL     ACCESS:   34704044  HIT:   34704044  MISS:          0  HIT %:        100  MISS %:          0   MPKI: 0
ITLB LOAD TRANSLATION NON_SPEC    ACCESS:   34704044  HIT:   34704044  MISS:          0  HIT %:        100  MISS %:          0   MPKI: 0
ITLB PREFETCH  REQUESTED:          0  ISSUED:          0  USEFUL:          0  USELESS:          0
ITLB USEFUL LOAD PREFETCHES:          0 PREFETCH ISSUED TO LOWER LEVEL:          0  ACCURACY: -nan
ITLB TIMELY PREFETCHES:          0 LATE PREFETCHES: 0 DROPPED PREFETCHES: 0
ITLB COMMIT LATE PREFETCHES: 0 MISSED OPPORTUNITY: 0 LATE IN PQ: 0 UNCOVERED: 0
ITLB COMMIT LATE MSHR PREFETCHES: 0
ITLB MPKI TOTAL: 0 MSHR LATE: 0 PQ LATE: 0 COMMIT LATE: 0 MISSED OPPORTUNITY: 0 UNCOVERED: 0
ITLB PREFETCHES SAME FILL-ORIGIN LEVEL: 0 DIFFERENT FILL-ORIGIN LEVEL: 0
ITLB AVERAGE MISS LATENCY: -nan cycles
ITLB AVERAGE MISS LATENCY LOAD: -nan cycles
ITLB AVERAGE MISS LATENCY PREFETCH: -nan cycles
ITLB AVERAGE MSHR OCCUPANCY: 0
ITLB MSHR FULL: 0
ITLB RQ	ACCESS:   36166529	FORWARD:          0	MERGED:    1462486	TO_CACHE:   34704043

DTLB SPEC fills:          0  NON-SPEC fills:          0
DTLB Test counter :          0
DTLB Leapfrog:          0
DTLB MSHR merge:          0
DTLB TOTAL     ACCESS:   59696125  HIT:   52386548  MISS:    7309577  HIT %:    87.7554  MISS %:    12.2446   MPKI: 36.5479
DTLB LOAD TRANSLATION NON_SPEC    ACCESS:   59696125  HIT:   52386548  MISS:    7309577  HIT %:    87.7554  MISS %:    12.2446   MPKI: 36.5479
DTLB PREFETCH  REQUESTED:          0  ISSUED:          0  USEFUL:          0  USELESS:          0
DTLB USEFUL LOAD PREFETCHES:          0 PREFETCH ISSUED TO LOWER LEVEL:          0  ACCURACY: -nan
DTLB TIMELY PREFETCHES:          0 LATE PREFETCHES: 0 DROPPED PREFETCHES: 0
DTLB COMMIT LATE PREFETCHES: 0 MISSED OPPORTUNITY: 0 LATE IN PQ: 0 UNCOVERED: 0
DTLB COMMIT LATE MSHR PREFETCHES: 0
DTLB MPKI TOTAL: 0 MSHR LATE: 0 PQ LATE: 0 COMMIT LATE: 0 MISSED OPPORTUNITY: 0 UNCOVERED: 0
DTLB PREFETCHES SAME FILL-ORIGIN LEVEL: 0 DIFFERENT FILL-ORIGIN LEVEL: 0
DTLB AVERAGE MISS LATENCY: 11.4118 cycles
DTLB AVERAGE MISS LATENCY LOAD: -nan cycles
DTLB AVERAGE MISS LATENCY PREFETCH: -nan cycles
DTLB AVERAGE MSHR OCCUPANCY: 0.0817201
DTLB MSHR FULL: 4.98448e-07
DTLB RQ	ACCESS:   72793308	FORWARD:          0	MERGED:   12606459	TO_CACHE:   60186849

STLB SPEC fills:          0  NON-SPEC fills:          0
STLB Test counter :          0
STLB Leapfrog:          0
STLB MSHR merge:          0
STLB TOTAL     ACCESS:   10513604  HIT:   10413938  MISS:      99666  HIT %:     99.052  MISS %:   0.947972   MPKI: 0.49833
STLB LOAD TRANSLATION NON_SPEC    ACCESS:    7309577  HIT:    7209911  MISS:      99666  HIT %:    98.6365  MISS %:     1.3635   MPKI: 0.49833
STLB TRANSLATION FROM L1D PREFETCHER NON_SPEC    ACCESS:    3204027  HIT:    3204027  MISS:          0  HIT %:        100  MISS %:          0   MPKI: 0
STLB PREFETCH  REQUESTED:          0  ISSUED:          0  USEFUL:          0  USELESS:          0
STLB USEFUL LOAD PREFETCHES:          0 PREFETCH ISSUED TO LOWER LEVEL:          0  ACCURACY: -nan
STLB TIMELY PREFETCHES:          0 LATE PREFETCHES: 0 DROPPED PREFETCHES: 0
STLB COMMIT LATE PREFETCHES: 0 MISSED OPPORTUNITY: 0 LATE IN PQ: 0 UNCOVERED: 0
STLB COMMIT LATE MSHR PREFETCHES: 0
STLB MPKI TOTAL: 0 MSHR LATE: 0 PQ LATE: 0 COMMIT LATE: 0 MISSED OPPORTUNITY: 0 UNCOVERED: 0
STLB PREFETCHES SAME FILL-ORIGIN LEVEL: 0 DIFFERENT FILL-ORIGIN LEVEL: 0
STLB AVERAGE MISS LATENCY: 166.914 cycles
STLB AVERAGE MISS LATENCY LOAD: -nan cycles
STLB AVERAGE MISS LATENCY PREFETCH: -nan cycles
STLB AVERAGE MSHR OCCUPANCY: 0.0168521
STLB MSHR FULL: 0
STLB RQ	ACCESS:   17224570	FORWARD:          0	MERGED:    6710966	TO_CACHE:   10513604

STLB Hit, L1D data hit: 0
STLB Hit, L2C data hit: 0
STLB Hit, LLC data hit: 0
STLB Hit, LLC data miss: 0
STLB STLB hints to L2: 0
L0D SPEC fills:   33787157  NON-SPEC fills:          0
L0D TimeGuard Request with older TS:     412875 Restricted eviction:     229145 read:     228180
L0D Test counter :          0
L0D Leapfrog:          0
L0D MSHR merge:    2280942
L0D TOTAL     ACCESS:   52709432  HIT:    3205830  MISS:   49503602  HIT %:    6.08208  MISS %:    93.9179   MPKI: 247.518
L0D LOAD      TOTAL       ACCESS:   52709432  HIT:    3205830  MISS:   49503602  HIT %:    6.08208  MISS %:    93.9179   MPKI: 247.518
L0D LOAD      NON_SPEC    ACCESS:   16062053  HIT:     574752  MISS:   15487301  HIT %:    3.57832  MISS %:    96.4217   MPKI: 77.4365
L0D LOAD      SPEC        ACCESS:   36647379  HIT:    2631078  MISS:   34016301  HIT %:    7.17944  MISS %:    92.8206   MPKI: 170.082
L0D PREFETCH  REQUESTED:          0  ISSUED:          0  USEFUL:          0  USELESS:          0
L0D USEFUL LOAD PREFETCHES:          0 PREFETCH ISSUED TO LOWER LEVEL:          0  ACCURACY: -nan
L0D TIMELY PREFETCHES:          0 LATE PREFETCHES: 0 DROPPED PREFETCHES: 0
L0D COMMIT LATE PREFETCHES: 0 MISSED OPPORTUNITY: 0 LATE IN PQ: 0 UNCOVERED: 0
L0D COMMIT LATE MSHR PREFETCHES: 0
L0D MPKI TOTAL: 258.923 MSHR LATE: 0 PQ LATE: 0 COMMIT LATE: 0 MISSED OPPORTUNITY: 0 UNCOVERED: 0
L0D PREFETCHES SAME FILL-ORIGIN LEVEL: 0 DIFFERENT FILL-ORIGIN LEVEL: 0
L0D AVERAGE MISS LATENCY: 24.1614 cycles
L0D AVERAGE MISS LATENCY LOAD: 24.1614 cycles
L0D AVERAGE MISS LATENCY PREFETCH: -nan cycles
L0D AVERAGE MSHR OCCUPANCY: 2.06606
L0D MSHR FULL: 0.135883
L0D RQ	ACCESS:   68382469	FORWARD:          0	MERGED:   13392094	TO_CACHE:   54990375
L0D WQ	ACCESS:   17802933	FORWARD:          0	MERGED:          0	TO_CACHE:   17802933

L1D SPEC fills:          0  NON-SPEC fills:    3494489
L1D Test counter :          0
L1D Leapfrog:          0
L1D MSHR merge:    1363109
L1D TOTAL     ACCESS:   83636911  HIT:   61394304  MISS:   22242607  HIT %:    73.4058  MISS %:    26.5942   MPKI: 111.213
L1D LOAD      TOTAL       ACCESS:   49499562  HIT:   37812570  MISS:   11686992  HIT %:    76.3897  MISS %:    23.6103   MPKI: 58.435
L1D LOAD      NON_SPEC    ACCESS:   15486720  HIT:   11992231  MISS:    3494489  HIT %:    77.4356  MISS %:    22.5644   MPKI: 17.4724
L1D LOAD      SPEC        ACCESS:   34012842  HIT:   25820339  MISS:    8192503  HIT %:    75.9135  MISS %:    24.0865   MPKI: 40.9625
L1D RFO       NON_SPEC    ACCESS:   16644406  HIT:   16057249  MISS:     587157  HIT %:    96.4723  MISS %:    3.52765   MPKI: 2.93579
L1D PREFETCH  NON_SPEC    ACCESS:    5664234  HIT:    3884980  MISS:    1779254  HIT %:    68.5879  MISS %:    31.4121   MPKI: 8.89627
L1D COMMIT LOAD NON_SPEC    ACCESS:    3959167  HIT:    3616137  MISS:     343030  HIT %:    91.3358  MISS %:     8.6642   MPKI: 1.71515
L1D COMMIT WRITE NON_SPEC    ACCESS:    7869542  HIT:      23368  MISS:    7846174  HIT %:   0.296942  MISS %:    99.7031   MPKI: 39.2309
L1D PREFETCH  REQUESTED:   11452857  ISSUED:   11452857  USEFUL:    1733706  USELESS:      45546
L1D USEFUL LOAD PREFETCHES:    1733706 PREFETCH ISSUED TO LOWER LEVEL:    3585027  ACCURACY: 48.3596
L1D TIMELY PREFETCHES:    1733706 LATE PREFETCHES: 1359069 DROPPED PREFETCHES: 0
L1D COMMIT LATE PREFETCHES: 0 MISSED OPPORTUNITY: 0 LATE IN PQ: 0 UNCOVERED: 0
L1D COMMIT LATE MSHR PREFETCHES: 0
L1D MPKI TOTAL: 58.4552 MSHR LATE: 6.79535 PQ LATE: 0 COMMIT LATE: 0 MISSED OPPORTUNITY: 0 UNCOVERED: 0
L1D PREFETCHES SAME FILL-ORIGIN LEVEL: 3138325 DIFFERENT FILL-ORIGIN LEVEL: 446702
L1D AVERAGE MISS LATENCY: 56.5456 cycles
L1D AVERAGE MISS LATENCY LOAD: 77.7723 cycles
L1D AVERAGE MISS LATENCY PREFETCH: 175.719 cycles
L1D AVERAGE MSHR OCCUPANCY: 1.03792
L1D MSHR FULL: 1.32778e-06
L1D RQ	ACCESS:   56685588	FORWARD:          0	MERGED:    3208909	TO_CACHE:   53472582
L1D WQ	ACCESS:   25673366	FORWARD:       4097	MERGED:     144691	TO_CACHE:   25528675
L1D PQ	ACCESS:   11452857	FORWARD:          0	MERGED:    1537864	TO_CACHE:    9914993

L1D UNIQUE REGIONS ACCESSED: 0
L1D REGIONS CONFLICTS: 0
L1D Cross Page Prefetch Requests: 0
L1D Same Page Prefetch Requests: 13430686
L1D ROI Sum of L1D PQ occupancy: 130985354
L1D PREFETCHES PUSHED FROM L2C: 0
L1I SPEC fills:          0  NON-SPEC fills:          0
L1I Test counter :          0
L1I Leapfrog:          0
L1I MSHR merge:          0
L1I TOTAL     ACCESS:   36166530  HIT:   36166528  MISS:          2  HIT %:        100  MISS %: 5.52997e-06   MPKI: 1e-05
L1I LOAD      TOTAL       ACCESS:   36166530  HIT:   36166528  MISS:          2  HIT %:        100  MISS %: 5.52997e-06   MPKI: 1e-05
L1I LOAD      NON_SPEC    ACCESS:   36166530  HIT:   36166528  MISS:          2  HIT %:        100  MISS %: 5.52997e-06   MPKI: 1e-05
L1I PREFETCH  REQUESTED:          0  ISSUED:          0  USEFUL:          0  USELESS:          0
L1I USEFUL LOAD PREFETCHES:          0 PREFETCH ISSUED TO LOWER LEVEL:          0  ACCURACY: -nan
L1I TIMELY PREFETCHES:          0 LATE PREFETCHES: 0 DROPPED PREFETCHES: 0
L1I COMMIT LATE PREFETCHES: 0 MISSED OPPORTUNITY: 0 LATE IN PQ: 0 UNCOVERED: 0
L1I COMMIT LATE MSHR PREFETCHES: 0
L1I MPKI TOTAL: 1e-05 MSHR LATE: 0 PQ LATE: 0 COMMIT LATE: 0 MISSED OPPORTUNITY: 0 UNCOVERED: 0
L1I PREFETCHES SAME FILL-ORIGIN LEVEL: 0 DIFFERENT FILL-ORIGIN LEVEL: 0
L1I AVERAGE MISS LATENCY: 214 cycles
L1I AVERAGE MISS LATENCY LOAD: 214 cycles
L1I AVERAGE MISS LATENCY PREFETCH: -nan cycles
L1I AVERAGE MSHR OCCUPANCY: 2.76499e-08
L1I MSHR FULL: 0
L1I RQ	ACCESS:   55360811	FORWARD:          0	MERGED:   19194282	TO_CACHE:   36166529

BTB SPEC fills:          0  NON-SPEC fills:          0
BTB Test counter :          0
BTB Leapfrog:          0
BTB MSHR merge:          0
BTB TOTAL     ACCESS:   49743916  HIT:   48131262  MISS:    1612654  HIT %:    96.7581  MISS %:    3.24191   MPKI: 8.06327
BTB BRANCH_DIRECT_JUMP	ACCESS:    5836928  HIT:    5836891  MISS:         37
BTB BRANCH_INDIRECT	ACCESS:          0  HIT:          0  MISS:          0
BTB BRANCH_CONDITIONAL	ACCESS:   36112465  HIT:   36112386  MISS:         79
BTB BRANCH_DIRECT_CALL	ACCESS:    3647058  HIT:    3647040  MISS:         18
BTB BRANCH_INDIRECT_CALL	ACCESS:     250202  HIT:     250194  MISS:          8
BTB BRANCH_RETURN	ACCESS:    3897263  HIT:    2284751  MISS:    1612512
BTB BRANCH_OTHER ACCESS:          0  HIT:          0  MISS:          0

L2C SPEC fills:          0  NON-SPEC fills:    2549577
L2C Test counter :          0
L2C Leapfrog:          0
L2C MSHR merge:      90521
L2C TOTAL     ACCESS:   22458466  HIT:    5473804  MISS:   16984662  HIT %:     24.373  MISS %:     75.627   MPKI: 84.9233
L2C LOAD      TOTAL       ACCESS:   10327764  HIT:    2287101  MISS:    8040663  HIT %:    22.1452  MISS %:    77.8548   MPKI: 40.2033
L2C LOAD      NON_SPEC    ACCESS:    3485659  HIT:     936080  MISS:    2549579  HIT %:    26.8552  MISS %:    73.1448   MPKI: 12.7479
L2C LOAD      SPEC        ACCESS:    6842105  HIT:    1351021  MISS:    5491084  HIT %:    19.7457  MISS %:    80.2543   MPKI: 27.4554
L2C RFO       NON_SPEC    ACCESS:     587081  HIT:     308840  MISS:     278241  HIT %:     52.606  MISS %:     47.394   MPKI: 1.39121
L2C PREFETCH  NON_SPEC    ACCESS:    3321763  HIT:     181262  MISS:    3140501  HIT %:     5.4568  MISS %:    94.5432   MPKI: 15.7025
L2C WRITEBACK NON_SPEC    ACCESS:     731777  HIT:     731772  MISS:          5  HIT %:    99.9993  MISS %: 0.000683268   MPKI: 2.5e-05
L2C CLEAN_EVICTION NON_SPEC    ACCESS:    6649105  HIT:    1389560  MISS:    5259545  HIT %:    20.8985  MISS %:    79.1015   MPKI: 26.2977
L2C COMMIT LOAD NON_SPEC    ACCESS:     343030  HIT:     113596  MISS:     229434  HIT %:    33.1155  MISS %:    66.8845   MPKI: 1.14717
L2C LOAD TRANSLATION NON_SPEC    ACCESS:     497946  HIT:     461673  MISS:      36273  HIT %:    92.7155  MISS %:    7.28452   MPKI: 0.181365
L2C PREFETCH  REQUESTED:          0  ISSUED:          0  USEFUL:     342126  USELESS:    2798719
L2C USEFUL LOAD PREFETCHES:     342126 PREFETCH ISSUED TO LOWER LEVEL:    3231022  ACCURACY: 10.5888
L2C TIMELY PREFETCHES:     342126 LATE PREFETCHES: 90521 DROPPED PREFETCHES: 0
L2C COMMIT LATE PREFETCHES: 0 MISSED OPPORTUNITY: 0 LATE IN PQ: 0 UNCOVERED: 0
L2C COMMIT LATE MSHR PREFETCHES: 0
L2C MPKI TOTAL: 40.2033 MSHR LATE: 0.452605 PQ LATE: 0 COMMIT LATE: 0 MISSED OPPORTUNITY: 0 UNCOVERED: 0
L2C PREFETCHES SAME FILL-ORIGIN LEVEL: 329201 DIFFERENT FILL-ORIGIN LEVEL: 0
L2C AVERAGE MISS LATENCY: 69.5072 cycles
L2C AVERAGE MISS LATENCY LOAD: 72.2038 cycles
L2C AVERAGE MISS LATENCY PREFETCH: 182.769 cycles
L2C AVERAGE MSHR OCCUPANCY: 2.5602
L2C MSHR FULL: 0
L2C RQ	ACCESS:   11756056	FORWARD:          0	MERGED:          0	TO_CACHE:   11755821
L2C WQ	ACCESS:    7380882	FORWARD:        240	MERGED:          0	TO_CACHE:    7380882
L2C PQ	ACCESS:    3585027	FORWARD:          0	MERGED:          2	TO_CACHE:    3585020

L2C Instructions Evicting Data 2
L2C Translations Evicting Data 36197
L2C Data Evicting Data 6177875
L2C Instructions Evicting Instructions 0
L2C Translations Evicting Instructions 0
L2C Data Evicting Instructions 1
L2C Instructions Evicting Translations 0
L2C Translations Evicting Translations 76
L2C Data Evicting Translations 19877
L2C Dense regions hint from L2: 0
PSCL5 SPEC fills:          0  NON-SPEC fills:          0
PSCL5 Test counter :          0
PSCL5 Leapfrog:          0
PSCL5 MSHR merge:          0
PSCL5 TOTAL     ACCESS:          0  HIT:          0  MISS:          0  HIT %:       -nan  MISS %:       -nan   MPKI: 0
PSCL5 PREFETCH  REQUESTED:          0  ISSUED:          0  USEFUL:          0  USELESS:          0
PSCL5 USEFUL LOAD PREFETCHES:          0 PREFETCH ISSUED TO LOWER LEVEL:          0  ACCURACY: -nan
PSCL5 TIMELY PREFETCHES:          0 LATE PREFETCHES: 0 DROPPED PREFETCHES: 0
PSCL5 COMMIT LATE PREFETCHES: 0 MISSED OPPORTUNITY: 0 LATE IN PQ: 0 UNCOVERED: 0
PSCL5 COMMIT LATE MSHR PREFETCHES: 0
PSCL5 MPKI TOTAL: 0 MSHR LATE: 0 PQ LATE: 0 COMMIT LATE: 0 MISSED OPPORTUNITY: 0 UNCOVERED: 0
PSCL5 PREFETCHES SAME FILL-ORIGIN LEVEL: 0 DIFFERENT FILL-ORIGIN LEVEL: 0

PSCL4 SPEC fills:          0  NON-SPEC fills:          0
PSCL4 Test counter :          0
PSCL4 Leapfrog:          0
PSCL4 MSHR merge:          0
PSCL4 TOTAL     ACCESS:          0  HIT:          0  MISS:          0  HIT %:       -nan  MISS %:       -nan   MPKI: 0
PSCL4 PREFETCH  REQUESTED:          0  ISSUED:          0  USEFUL:          0  USELESS:          0
PSCL4 USEFUL LOAD PREFETCHES:          0 PREFETCH ISSUED TO LOWER LEVEL:          0  ACCURACY: -nan
PSCL4 TIMELY PREFETCHES:          0 LATE PREFETCHES: 0 DROPPED PREFETCHES: 0
PSCL4 COMMIT LATE PREFETCHES: 0 MISSED OPPORTUNITY: 0 LATE IN PQ: 0 UNCOVERED: 0
PSCL4 COMMIT LATE MSHR PREFETCHES: 0
PSCL4 MPKI TOTAL: 0 MSHR LATE: 0 PQ LATE: 0 COMMIT LATE: 0 MISSED OPPORTUNITY: 0 UNCOVERED: 0
PSCL4 PREFETCHES SAME FILL-ORIGIN LEVEL: 0 DIFFERENT FILL-ORIGIN LEVEL: 0

PSCL3 SPEC fills:          0  NON-SPEC fills:          0
PSCL3 Test counter :          0
PSCL3 Leapfrog:          0
PSCL3 MSHR merge:          0
PSCL3 TOTAL     ACCESS:          0  HIT:          0  MISS:          0  HIT %:       -nan  MISS %:       -nan   MPKI: 0
PSCL3 PREFETCH  REQUESTED:          0  ISSUED:          0  USEFUL:          0  USELESS:          0
PSCL3 USEFUL LOAD PREFETCHES:          0 PREFETCH ISSUED TO LOWER LEVEL:          0  ACCURACY: -nan
PSCL3 TIMELY PREFETCHES:          0 LATE PREFETCHES: 0 DROPPED PREFETCHES: 0
PSCL3 COMMIT LATE PREFETCHES: 0 MISSED OPPORTUNITY: 0 LATE IN PQ: 0 UNCOVERED: 0
PSCL3 COMMIT LATE MSHR PREFETCHES: 0
PSCL3 MPKI TOTAL: 0 MSHR LATE: 0 PQ LATE: 0 COMMIT LATE: 0 MISSED OPPORTUNITY: 0 UNCOVERED: 0
PSCL3 PREFETCHES SAME FILL-ORIGIN LEVEL: 0 DIFFERENT FILL-ORIGIN LEVEL: 0

PSCL2 SPEC fills:          0  NON-SPEC fills:          0
PSCL2 Test counter :          0
PSCL2 Leapfrog:          0
PSCL2 MSHR merge:          0
PSCL2 TOTAL     ACCESS:          0  HIT:          0  MISS:          0  HIT %:       -nan  MISS %:       -nan   MPKI: 0
PSCL2 PREFETCH  REQUESTED:          0  ISSUED:          0  USEFUL:          0  USELESS:          0
PSCL2 USEFUL LOAD PREFETCHES:          0 PREFETCH ISSUED TO LOWER LEVEL:          0  ACCURACY: -nan
PSCL2 TIMELY PREFETCHES:          0 LATE PREFETCHES: 0 DROPPED PREFETCHES: 0
PSCL2 COMMIT LATE PREFETCHES: 0 MISSED OPPORTUNITY: 0 LATE IN PQ: 0 UNCOVERED: 0
PSCL2 COMMIT LATE MSHR PREFETCHES: 0
PSCL2 MPKI TOTAL: 0 MSHR LATE: 0 PQ LATE: 0 COMMIT LATE: 0 MISSED OPPORTUNITY: 0 UNCOVERED: 0
PSCL2 PREFETCHES SAME FILL-ORIGIN LEVEL: 0 DIFFERENT FILL-ORIGIN LEVEL: 0

LLC SPEC fills:          0  NON-SPEC fills:     431781
LLC Test counter :          0
LLC Leapfrog:          0
LLC MSHR merge:          0
LLC TOTAL     ACCESS:   18729602  HIT:   11196665  MISS:    7532937  HIT %:    59.7806  MISS %:    40.2194   MPKI: 37.6647
LLC LOAD      TOTAL       ACCESS:    7950037  HIT:    5624576  MISS:    2325461  HIT %:    70.7491  MISS %:    29.2509   MPKI: 11.6273
LLC LOAD      NON_SPEC    ACCESS:    2549520  HIT:    2117737  MISS:     431783  HIT %:    83.0641  MISS %:    16.9359   MPKI: 2.15891
LLC LOAD      SPEC        ACCESS:    5400517  HIT:    3506839  MISS:    1893678  HIT %:    64.9352  MISS %:    35.0648   MPKI: 9.46839
LLC RFO       NON_SPEC    ACCESS:     278236  HIT:     272690  MISS:       5546  HIT %:    98.0067  MISS %:    1.99327   MPKI: 0.02773
LLC PREFETCH  NON_SPEC    ACCESS:    3231022  HIT:      71370  MISS:    3159652  HIT %:     2.2089  MISS %:    97.7911   MPKI: 15.7983
LLC WRITEBACK NON_SPEC    ACCESS:     415553  HIT:     409514  MISS:       6039  HIT %:    98.5468  MISS %:    1.45324   MPKI: 0.030195
LLC CLEAN_EVICTION NON_SPEC    ACCESS:    6589080  HIT:    4602702  MISS:    1986378  HIT %:    69.8535  MISS %:    30.1465   MPKI: 9.93189
LLC COMMIT LOAD NON_SPEC    ACCESS:     229401  HIT:     194764  MISS:      34637  HIT %:    84.9011  MISS %:    15.0989   MPKI: 0.173185
LLC LOAD TRANSLATION NON_SPEC    ACCESS:      36273  HIT:      21049  MISS:      15224  HIT %:    58.0294  MISS %:    41.9706   MPKI: 0.07612
LLC PREFETCH  REQUESTED:          0  ISSUED:          0  USEFUL:      86911  USELESS:    3072955
LLC USEFUL LOAD PREFETCHES:      86911 PREFETCH ISSUED TO LOWER LEVEL:    3159652  ACCURACY: 2.75065
LLC TIMELY PREFETCHES:      86911 LATE PREFETCHES: 0 DROPPED PREFETCHES: 0
LLC COMMIT LATE PREFETCHES: 0 MISSED OPPORTUNITY: 0 LATE IN PQ: 0 UNCOVERED: 0
LLC COMMIT LATE MSHR PREFETCHES: 0
LLC MPKI TOTAL: 11.6273 MSHR LATE: 0 PQ LATE: 0 COMMIT LATE: 0 MISSED OPPORTUNITY: 0 UNCOVERED: 0
LLC PREFETCHES SAME FILL-ORIGIN LEVEL: 0 DIFFERENT FILL-ORIGIN LEVEL: 0
LLC AVERAGE MISS LATENCY: 116.775 cycles
LLC AVERAGE MISS LATENCY LOAD: 162.596 cycles
LLC AVERAGE MISS LATENCY PREFETCH: 155.734 cycles
LLC AVERAGE MSHR OCCUPANCY: 1.89934
LLC MSHR FULL: 0
LLC RQ	ACCESS:    8494090	FORWARD:          0	MERGED:          0	TO_CACHE:    8493947
LLC WQ	ACCESS:    7004633	FORWARD:        143	MERGED:          0	TO_CACHE:    7004633
LLC PQ	ACCESS:    3231022	FORWARD:          0	MERGED:          0	TO_CACHE:    3231022

LLC Dense regions hint to LLC: 0

RAW hits: 2270512
Loads Generated: 70652983
Loads sent to L1D: 68382469
Stores Generated: 17802933
Stores sent to L1D: 17802933
Major fault: 0 Minor fault: 80635
Allocated PAGES: 80635
Total Load insts: 84735596
Total Non-spec loads: 17705990
Percentage of speculative loads: 79.1044

LeapFrogging counter: 5507609
Commit hits: 33534318 miss: 18695091
Commit hit %: 64.2058 miss %: 35.7942
Commits not translated: 0
Loads retired: 11686992
Stores retired: 17802933
Cache fills: 11686992
L1D response latency: 77.7723 cycles
Load retirement latency: 193.565 cycles
OOO test counter: 0
Discarded buffer inserts: 33534318 hits: 33465 hit %: 0.0997933
Filter prediction accuracy: 99.9476
Speculative prefetch buffer size: 0
CPU 0 L1D PC-based stride prefetcher final stats
Degree: 3

DRAM Statistics
 CHANNEL 0
 RQ ROW_BUFFER_HIT:    1067720  ROW_BUFFER_MISS:    4471952
 DBUS_CONGESTED:       4978
 WQ ROW_BUFFER_HIT:     670979  ROW_BUFFER_MISS:    2862497  FULL:         35

 AVG_CONGESTED_CYCLE: 4
 All warmup complete: 2
Channel 0 Bank busy for read cycles: 0
Channel 0 Bank busy for write cycles: 0
Channel 0
Rank 0
0banks busy for read cycles: 333381046
0banks busy for write cycles: 199434
1banks busy for read cycles: 105389915
1banks busy for write cycles: 26376429
2banks busy for read cycles: 54055457
2banks busy for write cycles: 18900410
3banks busy for read cycles: 30788246
3banks busy for write cycles: 19678168
4banks busy for read cycles: 28243078
4banks busy for write cycles: 19623790
5banks busy for read cycles: 18846793
5banks busy for write cycles: 18496748
6banks busy for read cycles: 13748494
6banks busy for write cycles: 17831161
7banks busy for read cycles: 11121576
7banks busy for write cycles: 18911586
8banks busy for read cycles: 6396500
8banks busy for write cycles: 27273119

CPU 0 Branch Prediction Accuracy: 94.5902% MPKI: 13.9808 Average ROB Occupancy at Mispredict: 26.3374
Branch types
NOT_BRANCH: 148312419 74.1562%
BRANCH_DIRECT_JUMP: 5836928 2.91846%
BRANCH_INDIRECT: 0 0%
BRANCH_CONDITIONAL: 38055866 19.0279%
BRANCH_DIRECT_CALL: 3647058 1.82353%
BRANCH_INDIRECT_CALL: 250202 0.125101%
BRANCH_RETURN: 3897263 1.94863%
BRANCH_OTHER: 0 0%

DRAM PAGES: 1048576
Allocated PAGES: 80635
