
*** ChampSim Multicore Out-of-Order Simulator ***

Warmup Instructions: 50000000
Simulation Instructions: 200000000
Number of CPUs: 1
LLC sets: 2048
LLC ways: 16
L0D sets: 16
L0D ways: 2
ROB size: 352
LQ size: 128
SQ size: 72
Secure Berti: OFF
Berti: OFF
Berti Fill: OFF
On commit prefetching: OFF
Hit-based filter: ON
Time-guarding: ON
Free-slotting: ON
Leap-frogging: ON
Train prefetcher on L0D bypass: OFF
No translation penalty for prefetchers: OFF
Prefetch to L0D only: OFF
Prefetch to L1D only: OFF
Clean evictions: ON
Commit loads: ON
Commit write: ON
Fill commit loads to L2C, LLC: ON
DRAM IO FREQUENCY: 6400
ROB SIZE: 352
Off-chip DRAM Size: 4096 MB Channels: 1 Width: 64-bit Data Rate: 6400 MT/s
CPU 0 runs /home/sumon/secure_berti/GhostMinion/../../traces/spec/605.mcf_s-1554B.champsimtrace.xz
.xz
BTB has LRU replacement policy
ITLB has LRU replacement policy
DTLB has LRU replacement policy
STLB has LRU replacement policy
L1I has LRU replacement policy
L0D has LRU replacement policy
CPU 0 L1D IP-based stride prefetcher
L1D has LRU replacement policy
L2C has LRU replacement policy
LLC has LRU replacement policy
Heartbeat CPU 0 instructions: 10000002 cycles: 4334965 heartbeat IPC: 2.30682 cumulative IPC: 2.30682 (Simulation time: 0 hr 0 min 53 sec) 
Heartbeat CPU 0 instructions: 20000000 cycles: 8689237 heartbeat IPC: 2.29659 cumulative IPC: 2.3017 (Simulation time: 0 hr 1 min 45 sec) 
Heartbeat CPU 0 instructions: 30000002 cycles: 13057279 heartbeat IPC: 2.28936 cumulative IPC: 2.29757 (Simulation time: 0 hr 2 min 38 sec) 
Heartbeat CPU 0 instructions: 40000000 cycles: 17412830 heartbeat IPC: 2.29592 cumulative IPC: 2.29716 (Simulation time: 0 hr 3 min 33 sec) 
Heartbeat CPU 0 instructions: 50000001 cycles: 21767779 heartbeat IPC: 2.29624 cumulative IPC: 2.29697 (Simulation time: 0 hr 4 min 27 sec) 

Warmup complete CPU 0 instructions: 50000001 cycles: 21767779 (Simulation time: 0 hr 4 min 27 sec) 

Heartbeat CPU 0 instructions: 60000000 cycles: 89150447 heartbeat IPC: 0.148406 cumulative IPC: 0.148406 (Simulation time: 0 hr 6 min 19 sec) 
Heartbeat CPU 0 instructions: 70000002 cycles: 156662084 heartbeat IPC: 0.148123 cumulative IPC: 0.148264 (Simulation time: 0 hr 8 min 11 sec) 
Heartbeat CPU 0 instructions: 80000003 cycles: 225340055 heartbeat IPC: 0.145607 cumulative IPC: 0.147368 (Simulation time: 0 hr 10 min 4 sec) 
Heartbeat CPU 0 instructions: 90000000 cycles: 293150049 heartbeat IPC: 0.147471 cumulative IPC: 0.147394 (Simulation time: 0 hr 11 min 59 sec) 
Heartbeat CPU 0 instructions: 100000001 cycles: 360868202 heartbeat IPC: 0.147671 cumulative IPC: 0.147449 (Simulation time: 0 hr 13 min 46 sec) 
Heartbeat CPU 0 instructions: 110000000 cycles: 429215521 heartbeat IPC: 0.146312 cumulative IPC: 0.147258 (Simulation time: 0 hr 15 min 28 sec) 
Heartbeat CPU 0 instructions: 120000000 cycles: 497080484 heartbeat IPC: 0.147351 cumulative IPC: 0.147271 (Simulation time: 0 hr 17 min 4 sec) 
Heartbeat CPU 0 instructions: 130000000 cycles: 565541855 heartbeat IPC: 0.146068 cumulative IPC: 0.14712 (Simulation time: 0 hr 18 min 35 sec) 
Heartbeat CPU 0 instructions: 140000000 cycles: 635173374 heartbeat IPC: 0.143613 cumulative IPC: 0.146722 (Simulation time: 0 hr 20 min 6 sec) 
Heartbeat CPU 0 instructions: 150000002 cycles: 704166416 heartbeat IPC: 0.144942 cumulative IPC: 0.146542 (Simulation time: 0 hr 21 min 37 sec) 
Heartbeat CPU 0 instructions: 160000000 cycles: 772714453 heartbeat IPC: 0.145883 cumulative IPC: 0.146482 (Simulation time: 0 hr 23 min 7 sec) 
Heartbeat CPU 0 instructions: 170000003 cycles: 841855299 heartbeat IPC: 0.144632 cumulative IPC: 0.146326 (Simulation time: 0 hr 24 min 38 sec) 
Heartbeat CPU 0 instructions: 180000001 cycles: 911402563 heartbeat IPC: 0.143787 cumulative IPC: 0.146127 (Simulation time: 0 hr 26 min 9 sec) 
Heartbeat CPU 0 instructions: 190000001 cycles: 980358294 heartbeat IPC: 0.145021 cumulative IPC: 0.146048 (Simulation time: 0 hr 27 min 38 sec) 
Heartbeat CPU 0 instructions: 200000002 cycles: 1050623055 heartbeat IPC: 0.142319 cumulative IPC: 0.145793 (Simulation time: 0 hr 29 min 8 sec) 
Heartbeat CPU 0 instructions: 210000001 cycles: 1119803502 heartbeat IPC: 0.14455 cumulative IPC: 0.145715 (Simulation time: 0 hr 30 min 36 sec) 
Heartbeat CPU 0 instructions: 220000000 cycles: 1189173062 heartbeat IPC: 0.144155 cumulative IPC: 0.145622 (Simulation time: 0 hr 32 min 3 sec) 
Heartbeat CPU 0 instructions: 230000002 cycles: 1259581357 heartbeat IPC: 0.142029 cumulative IPC: 0.145418 (Simulation time: 0 hr 33 min 33 sec) 
Heartbeat CPU 0 instructions: 240000001 cycles: 1329564289 heartbeat IPC: 0.142892 cumulative IPC: 0.145283 (Simulation time: 0 hr 35 min 1 sec) 
Heartbeat CPU 0 instructions: 250000002 cycles: 1399905183 heartbeat IPC: 0.142165 cumulative IPC: 0.145123 (Simulation time: 0 hr 36 min 29 sec) 
Finished CPU 0 instructions: 200000001 cycles: 1378137404 cumulative IPC: 0.145123 (Simulation time: 0 hr 36 min 29 sec) 
 Instruction ID: 250000342

ChampSim completed all CPUs

Region of Interest Statistics

CPU 0 cumulative IPC: 0.145123 instructions: 200000001 cycles: 1378137404
ITLB SPEC fills:          0  NON-SPEC fills:          0
ITLB Test counter :          0
ITLB Leapfrog:          0
ITLB MSHR merge:          0
ITLB TOTAL     ACCESS:   43056480  HIT:   43056480  MISS:          0  HIT %:        100  MISS %:          0   MPKI: 0
ITLB LOAD TRANSLATION NON_SPEC    ACCESS:   43056480  HIT:   43056480  MISS:          0  HIT %:        100  MISS %:          0   MPKI: 0
ITLB PREFETCH  REQUESTED:          0  ISSUED:          0  USEFUL:          0  USELESS:          0
ITLB USEFUL LOAD PREFETCHES:          0 PREFETCH ISSUED TO LOWER LEVEL:          0  ACCURACY: -nan
ITLB TIMELY PREFETCHES:          0 LATE PREFETCHES: 0 DROPPED PREFETCHES: 0
ITLB COMMIT LATE PREFETCHES: 0 MISSED OPPORTUNITY: 0 LATE IN PQ: 0 UNCOVERED: 0
ITLB COMMIT LATE MSHR PREFETCHES: 0
ITLB MPKI TOTAL: 0 MSHR LATE: 0 PQ LATE: 0 COMMIT LATE: 0 MISSED OPPORTUNITY: 0 UNCOVERED: 0
ITLB PREFETCHES SAME FILL-ORIGIN LEVEL: 0 DIFFERENT FILL-ORIGIN LEVEL: 0
ITLB AVERAGE MISS LATENCY: -nan cycles
ITLB AVERAGE MISS LATENCY LOAD: -nan cycles
ITLB AVERAGE MISS LATENCY PREFETCH: -nan cycles
ITLB AVERAGE MSHR OCCUPANCY: 0
ITLB MSHR FULL: 0
ITLB RQ	ACCESS:   52150262	FORWARD:          0	MERGED:    9093782	TO_CACHE:   43056480

DTLB SPEC fills:          0  NON-SPEC fills:          0
DTLB Test counter :          0
DTLB Leapfrog:          0
DTLB MSHR merge:          0
DTLB TOTAL     ACCESS:   68447778  HIT:   67647123  MISS:     800655  HIT %:    98.8303  MISS %:    1.16973   MPKI: 4.00327
DTLB LOAD TRANSLATION NON_SPEC    ACCESS:   68447778  HIT:   67647123  MISS:     800655  HIT %:    98.8303  MISS %:    1.16973   MPKI: 4.00327
DTLB PREFETCH  REQUESTED:          0  ISSUED:          0  USEFUL:          0  USELESS:          0
DTLB USEFUL LOAD PREFETCHES:          0 PREFETCH ISSUED TO LOWER LEVEL:          0  ACCURACY: -nan
DTLB TIMELY PREFETCHES:          0 LATE PREFETCHES: 0 DROPPED PREFETCHES: 0
DTLB COMMIT LATE PREFETCHES: 0 MISSED OPPORTUNITY: 0 LATE IN PQ: 0 UNCOVERED: 0
DTLB COMMIT LATE MSHR PREFETCHES: 0
DTLB MPKI TOTAL: 0 MSHR LATE: 0 PQ LATE: 0 COMMIT LATE: 0 MISSED OPPORTUNITY: 0 UNCOVERED: 0
DTLB PREFETCHES SAME FILL-ORIGIN LEVEL: 0 DIFFERENT FILL-ORIGIN LEVEL: 0
DTLB AVERAGE MISS LATENCY: 13.4565 cycles
DTLB AVERAGE MISS LATENCY LOAD: -nan cycles
DTLB AVERAGE MISS LATENCY PREFETCH: -nan cycles
DTLB AVERAGE MSHR OCCUPANCY: 0.0134345
DTLB MSHR FULL: 0
DTLB RQ	ACCESS:   84505819	FORWARD:          0	MERGED:   16025725	TO_CACHE:   68480094

STLB SPEC fills:          0  NON-SPEC fills:          0
STLB Test counter :          0
STLB Leapfrog:          0
STLB MSHR merge:          0
STLB TOTAL     ACCESS:    9016146  HIT:    9003872  MISS:      12274  HIT %:    99.8639  MISS %:   0.136134   MPKI: 0.06137
STLB LOAD TRANSLATION NON_SPEC    ACCESS:     800655  HIT:     788385  MISS:      12270  HIT %:    98.4675  MISS %:     1.5325   MPKI: 0.06135
STLB TRANSLATION FROM L1D PREFETCHER NON_SPEC    ACCESS:    8215491  HIT:    8215487  MISS:          4  HIT %:        100  MISS %: 4.86885e-05   MPKI: 2e-05
STLB PREFETCH  REQUESTED:          0  ISSUED:          0  USEFUL:          4  USELESS:          0
STLB USEFUL LOAD PREFETCHES:          4 PREFETCH ISSUED TO LOWER LEVEL:          0  ACCURACY: inf
STLB TIMELY PREFETCHES:          4 LATE PREFETCHES: 0 DROPPED PREFETCHES: 0
STLB COMMIT LATE PREFETCHES: 0 MISSED OPPORTUNITY: 0 LATE IN PQ: 0 UNCOVERED: 0
STLB COMMIT LATE MSHR PREFETCHES: 0
STLB MPKI TOTAL: 0 MSHR LATE: 0 PQ LATE: 0 COMMIT LATE: 0 MISSED OPPORTUNITY: 0 UNCOVERED: 0
STLB PREFETCHES SAME FILL-ORIGIN LEVEL: 0 DIFFERENT FILL-ORIGIN LEVEL: 0
STLB AVERAGE MISS LATENCY: 290.244 cycles
STLB AVERAGE MISS LATENCY LOAD: -nan cycles
STLB AVERAGE MISS LATENCY PREFETCH: -nan cycles
STLB AVERAGE MSHR OCCUPANCY: 0.00193863
STLB MSHR FULL: 0
STLB RQ	ACCESS:   24691110	FORWARD:          0	MERGED:   15674964	TO_CACHE:    9016146

STLB Hit, L1D data hit: 0
STLB Hit, L2C data hit: 0
STLB Hit, LLC data hit: 0
STLB Hit, LLC data miss: 0
STLB STLB hints to L2: 0
L0D SPEC fills:   41272387  NON-SPEC fills:          0
L0D TimeGuard Request with older TS:    2843104 Restricted eviction:    1205621 read:    2996112
L0D Test counter :          0
L0D Leapfrog:          0
L0D MSHR merge:    4961585
L0D TOTAL     ACCESS:   66025536  HIT:   16782907  MISS:   49242629  HIT %:    25.4188  MISS %:    74.5812   MPKI: 246.213
L0D LOAD      TOTAL       ACCESS:   66025536  HIT:   16782907  MISS:   49242629  HIT %:    25.4188  MISS %:    74.5812   MPKI: 246.213
L0D LOAD      NON_SPEC    ACCESS:    7770912  HIT:    1006291  MISS:    6764621  HIT %:    12.9495  MISS %:    87.0505   MPKI: 33.8231
L0D LOAD      SPEC        ACCESS:   58254624  HIT:   15776616  MISS:   42478008  HIT %:    27.0822  MISS %:    72.9178   MPKI: 212.39
L0D PREFETCH  REQUESTED:          0  ISSUED:          0  USEFUL:          0  USELESS:          0
L0D USEFUL LOAD PREFETCHES:          0 PREFETCH ISSUED TO LOWER LEVEL:          0  ACCURACY: -nan
L0D TIMELY PREFETCHES:          0 LATE PREFETCHES: 0 DROPPED PREFETCHES: 0
L0D COMMIT LATE PREFETCHES: 0 MISSED OPPORTUNITY: 0 LATE IN PQ: 0 UNCOVERED: 0
L0D COMMIT LATE MSHR PREFETCHES: 0
L0D MPKI TOTAL: 271.021 MSHR LATE: 0 PQ LATE: 0 COMMIT LATE: 0 MISSED OPPORTUNITY: 0 UNCOVERED: 0
L0D PREFETCHES SAME FILL-ORIGIN LEVEL: 0 DIFFERENT FILL-ORIGIN LEVEL: 0
L0D AVERAGE MISS LATENCY: 102.388 cycles
L0D AVERAGE MISS LATENCY LOAD: 102.388 cycles
L0D AVERAGE MISS LATENCY PREFETCH: -nan cycles
L0D AVERAGE MSHR OCCUPANCY: 5.28063
L0D MSHR FULL: 0.391009
L0D RQ	ACCESS:   83187859	FORWARD:          0	MERGED:   12200742	TO_CACHE:   70987117
L0D WQ	ACCESS:   13518702	FORWARD:          0	MERGED:          0	TO_CACHE:   13518702

L1D SPEC fills:          0  NON-SPEC fills:    2004803
L1D Test counter :          0
L1D Leapfrog:          0
L1D MSHR merge:    1201667
L1D TOTAL     ACCESS:  100298061  HIT:   43616693  MISS:   56681368  HIT %:    43.4871  MISS %:    56.5129   MPKI: 283.407
L1D LOAD      TOTAL       ACCESS:   49222433  HIT:   23863411  MISS:   25359022  HIT %:    48.4808  MISS %:    51.5192   MPKI: 126.795
L1D LOAD      NON_SPEC    ACCESS:    6752771  HIT:    4747968  MISS:    2004803  HIT %:    70.3114  MISS %:    29.6886   MPKI: 10.024
L1D LOAD      SPEC        ACCESS:   42469662  HIT:   19115443  MISS:   23354219  HIT %:    45.0096  MISS %:    54.9904   MPKI: 116.771
L1D RFO       NON_SPEC    ACCESS:   10253480  HIT:    9848852  MISS:     404628  HIT %:    96.0537  MISS %:    3.94625   MPKI: 2.02314
L1D PREFETCH  NON_SPEC    ACCESS:   13287845  HIT:    4428949  MISS:    8858896  HIT %:    33.3308  MISS %:    66.6692   MPKI: 44.2945
L1D COMMIT LOAD NON_SPEC    ACCESS:    5545314  HIT:    4571082  MISS:     974232  HIT %:    82.4314  MISS %:    17.5686   MPKI: 4.87116
L1D COMMIT WRITE NON_SPEC    ACCESS:   21988989  HIT:     904399  MISS:   21084590  HIT %:    4.11296  MISS %:     95.887   MPKI: 105.423
L1D PREFETCH  REQUESTED:   23961825  ISSUED:   23961805  USEFUL:    6710029  USELESS:    2148948
L1D USEFUL LOAD PREFETCHES:    6710029 PREFETCH ISSUED TO LOWER LEVEL:   15962042  ACCURACY: 42.0374
L1D TIMELY PREFETCHES:    6710029 LATE PREFETCHES: 1181802 DROPPED PREFETCHES: 0
L1D COMMIT LATE PREFETCHES: 0 MISSED OPPORTUNITY: 0 LATE IN PQ: 0 UNCOVERED: 0
L1D COMMIT LATE MSHR PREFETCHES: 0
L1D MPKI TOTAL: 126.896 MSHR LATE: 5.90901 PQ LATE: 0 COMMIT LATE: 0 MISSED OPPORTUNITY: 0 UNCOVERED: 0
L1D PREFETCHES SAME FILL-ORIGIN LEVEL: 10040792 DIFFERENT FILL-ORIGIN LEVEL: 5921250
L1D AVERAGE MISS LATENCY: 123.705 cycles
L1D AVERAGE MISS LATENCY LOAD: 179.601 cycles
L1D AVERAGE MISS LATENCY PREFETCH: 246.435 cycles
L1D AVERAGE MSHR OCCUPANCY: 5.168
L1D MSHR FULL: 0.0026202
L1D RQ	ACCESS:   55119905	FORWARD:          0	MERGED:     241399	TO_CACHE:   54871619
L1D WQ	ACCESS:   35507695	FORWARD:       6887	MERGED:    2148698	TO_CACHE:   33358997
L1D PQ	ACCESS:   23961805	FORWARD:          0	MERGED:      71350	TO_CACHE:   23890455

L1D UNIQUE REGIONS ACCESSED: 0
L1D REGIONS CONFLICTS: 0
L1D Cross Page Prefetch Requests: 0
L1D Same Page Prefetch Requests: 30156740
L1D ROI Sum of L1D PQ occupancy: 322131115
L1D PREFETCHES PUSHED FROM L2C: 0
L1I SPEC fills:          0  NON-SPEC fills:          0
L1I Test counter :          0
L1I Leapfrog:          0
L1I MSHR merge:          0
L1I TOTAL     ACCESS:   52150260  HIT:   52150260  MISS:          0  HIT %:        100  MISS %:          0   MPKI: 0
L1I LOAD      TOTAL       ACCESS:   52150260  HIT:   52150260  MISS:          0  HIT %:        100  MISS %:          0   MPKI: 0
L1I LOAD      NON_SPEC    ACCESS:   52150260  HIT:   52150260  MISS:          0  HIT %:        100  MISS %:          0   MPKI: 0
L1I PREFETCH  REQUESTED:          0  ISSUED:          0  USEFUL:          0  USELESS:          0
L1I USEFUL LOAD PREFETCHES:          0 PREFETCH ISSUED TO LOWER LEVEL:          0  ACCURACY: -nan
L1I TIMELY PREFETCHES:          0 LATE PREFETCHES: 0 DROPPED PREFETCHES: 0
L1I COMMIT LATE PREFETCHES: 0 MISSED OPPORTUNITY: 0 LATE IN PQ: 0 UNCOVERED: 0
L1I COMMIT LATE MSHR PREFETCHES: 0
L1I MPKI TOTAL: 0 MSHR LATE: 0 PQ LATE: 0 COMMIT LATE: 0 MISSED OPPORTUNITY: 0 UNCOVERED: 0
L1I PREFETCHES SAME FILL-ORIGIN LEVEL: 0 DIFFERENT FILL-ORIGIN LEVEL: 0
L1I AVERAGE MISS LATENCY: -nan cycles
L1I AVERAGE MISS LATENCY LOAD: -nan cycles
L1I AVERAGE MISS LATENCY PREFETCH: -nan cycles
L1I AVERAGE MSHR OCCUPANCY: 0
L1I MSHR FULL: 0
L1I RQ	ACCESS:   69727238	FORWARD:          0	MERGED:   17576976	TO_CACHE:   52150262

BTB SPEC fills:          0  NON-SPEC fills:          0
BTB Test counter :          0
BTB Leapfrog:          0
BTB MSHR merge:          0
BTB TOTAL     ACCESS:   35943470  HIT:   35943438  MISS:         32  HIT %:    99.9999  MISS %: 8.90287e-05   MPKI: 0.00016
BTB BRANCH_DIRECT_JUMP	ACCESS:    8413977  HIT:    8413971  MISS:          6
BTB BRANCH_INDIRECT	ACCESS:          0  HIT:          0  MISS:          0
BTB BRANCH_CONDITIONAL	ACCESS:   27526337  HIT:   27526315  MISS:         22
BTB BRANCH_DIRECT_CALL	ACCESS:       1578  HIT:       1576  MISS:          2
BTB BRANCH_INDIRECT_CALL	ACCESS:          0  HIT:          0  MISS:          0
BTB BRANCH_RETURN	ACCESS:       1578  HIT:       1576  MISS:          2
BTB BRANCH_OTHER ACCESS:          0  HIT:          0  MISS:          0

L2C SPEC fills:          0  NON-SPEC fills:    1562545
L2C Test counter :          0
L2C Leapfrog:          0
L2C MSHR merge:     352845
L2C TOTAL     ACCESS:   60540357  HIT:    5557063  MISS:   54983294  HIT %:    9.17911  MISS %:    90.8209   MPKI: 274.916
L2C LOAD      TOTAL       ACCESS:   24174155  HIT:    2366846  MISS:   21807309  HIT %:    9.79081  MISS %:    90.2092   MPKI: 109.037
L2C LOAD      NON_SPEC    ACCESS:    1986008  HIT:     423463  MISS:    1562545  HIT %:    21.3223  MISS %:    78.6777   MPKI: 7.81272
L2C LOAD      SPEC        ACCESS:   22188147  HIT:    1943383  MISS:   20244764  HIT %:    8.75865  MISS %:    91.2413   MPKI: 101.224
L2C RFO       NON_SPEC    ACCESS:     404535  HIT:        682  MISS:     403853  HIT %:   0.168589  MISS %:    99.8314   MPKI: 2.01926
L2C PREFETCH  NON_SPEC    ACCESS:   14848573  HIT:    1223761  MISS:   13624812  HIT %:    8.24161  MISS %:    91.7584   MPKI: 68.1241
L2C WRITEBACK NON_SPEC    ACCESS:     495563  HIT:     494902  MISS:        661  HIT %:    99.8666  MISS %:   0.133384   MPKI: 0.003305
L2C CLEAN_EVICTION NON_SPEC    ACCESS:   19582285  HIT:    1195280  MISS:   18387005  HIT %:    6.10388  MISS %:    93.8961   MPKI: 91.935
L2C COMMIT LOAD NON_SPEC    ACCESS:     973901  HIT:     219277  MISS:     754624  HIT %:    22.5153  MISS %:    77.4847   MPKI: 3.77312
L2C LOAD TRANSLATION NON_SPEC    ACCESS:      61325  HIT:      56307  MISS:       5018  HIT %:    91.8174  MISS %:    8.18263   MPKI: 0.02509
L2C TRANSLATION FROM L1D PREFETCHER NON_SPEC    ACCESS:         20  HIT:          8  MISS:         12  HIT %:         40  MISS %:         60   MPKI: 6e-05
L2C PREFETCH  REQUESTED:          0  ISSUED:          0  USEFUL:    2278596  USELESS:   11347352
L2C USEFUL LOAD PREFETCHES:    2278596 PREFETCH ISSUED TO LOWER LEVEL:   13977713  ACCURACY: 16.3016
L2C TIMELY PREFETCHES:    2278596 LATE PREFETCHES: 352899 DROPPED PREFETCHES: 0
L2C COMMIT LATE PREFETCHES: 0 MISSED OPPORTUNITY: 0 LATE IN PQ: 0 UNCOVERED: 0
L2C COMMIT LATE MSHR PREFETCHES: 0
L2C MPKI TOTAL: 109.037 MSHR LATE: 1.76449 PQ LATE: 0 COMMIT LATE: 0 MISSED OPPORTUNITY: 0 UNCOVERED: 0
L2C PREFETCHES SAME FILL-ORIGIN LEVEL: 5318392 DIFFERENT FILL-ORIGIN LEVEL: 0
L2C AVERAGE MISS LATENCY: 150.471 cycles
L2C AVERAGE MISS LATENCY LOAD: 188.656 cycles
L2C AVERAGE MISS LATENCY PREFETCH: 286.59 cycles
L2C AVERAGE MSHR OCCUPANCY: 6.55266
L2C MSHR FULL: 0
L2C RQ	ACCESS:   25617332	FORWARD:          0	MERGED:          0	TO_CACHE:   25613936
L2C WQ	ACCESS:   20077851	FORWARD:       3396	MERGED:          0	TO_CACHE:   20077851
L2C PQ	ACCESS:   15962042	FORWARD:          0	MERGED:         14	TO_CACHE:   15962028

L2C Instructions Evicting Data 0
L2C Translations Evicting Data 5030
L2C Data Evicting Data 16342935
L2C Instructions Evicting Instructions 0
L2C Translations Evicting Instructions 0
L2C Data Evicting Instructions 0
L2C Instructions Evicting Translations 0
L2C Translations Evicting Translations 0
L2C Data Evicting Translations 2899
L2C Dense regions hint from L2: 0
PSCL5 SPEC fills:          0  NON-SPEC fills:          0
PSCL5 Test counter :          0
PSCL5 Leapfrog:          0
PSCL5 MSHR merge:          0
PSCL5 TOTAL     ACCESS:          0  HIT:          0  MISS:          0  HIT %:       -nan  MISS %:       -nan   MPKI: 0
PSCL5 PREFETCH  REQUESTED:          0  ISSUED:          0  USEFUL:          0  USELESS:          0
PSCL5 USEFUL LOAD PREFETCHES:          0 PREFETCH ISSUED TO LOWER LEVEL:          0  ACCURACY: -nan
PSCL5 TIMELY PREFETCHES:          0 LATE PREFETCHES: 0 DROPPED PREFETCHES: 0
PSCL5 COMMIT LATE PREFETCHES: 0 MISSED OPPORTUNITY: 0 LATE IN PQ: 0 UNCOVERED: 0
PSCL5 COMMIT LATE MSHR PREFETCHES: 0
PSCL5 MPKI TOTAL: 0 MSHR LATE: 0 PQ LATE: 0 COMMIT LATE: 0 MISSED OPPORTUNITY: 0 UNCOVERED: 0
PSCL5 PREFETCHES SAME FILL-ORIGIN LEVEL: 0 DIFFERENT FILL-ORIGIN LEVEL: 0

PSCL4 SPEC fills:          0  NON-SPEC fills:          0
PSCL4 Test counter :          0
PSCL4 Leapfrog:          0
PSCL4 MSHR merge:          0
PSCL4 TOTAL     ACCESS:          0  HIT:          0  MISS:          0  HIT %:       -nan  MISS %:       -nan   MPKI: 0
PSCL4 PREFETCH  REQUESTED:          0  ISSUED:          0  USEFUL:          0  USELESS:          0
PSCL4 USEFUL LOAD PREFETCHES:          0 PREFETCH ISSUED TO LOWER LEVEL:          0  ACCURACY: -nan
PSCL4 TIMELY PREFETCHES:          0 LATE PREFETCHES: 0 DROPPED PREFETCHES: 0
PSCL4 COMMIT LATE PREFETCHES: 0 MISSED OPPORTUNITY: 0 LATE IN PQ: 0 UNCOVERED: 0
PSCL4 COMMIT LATE MSHR PREFETCHES: 0
PSCL4 MPKI TOTAL: 0 MSHR LATE: 0 PQ LATE: 0 COMMIT LATE: 0 MISSED OPPORTUNITY: 0 UNCOVERED: 0
PSCL4 PREFETCHES SAME FILL-ORIGIN LEVEL: 0 DIFFERENT FILL-ORIGIN LEVEL: 0

PSCL3 SPEC fills:          0  NON-SPEC fills:          0
PSCL3 Test counter :          0
PSCL3 Leapfrog:          0
PSCL3 MSHR merge:          0
PSCL3 TOTAL     ACCESS:          0  HIT:          0  MISS:          0  HIT %:       -nan  MISS %:       -nan   MPKI: 0
PSCL3 PREFETCH  REQUESTED:          0  ISSUED:          0  USEFUL:          0  USELESS:          0
PSCL3 USEFUL LOAD PREFETCHES:          0 PREFETCH ISSUED TO LOWER LEVEL:          0  ACCURACY: -nan
PSCL3 TIMELY PREFETCHES:          0 LATE PREFETCHES: 0 DROPPED PREFETCHES: 0
PSCL3 COMMIT LATE PREFETCHES: 0 MISSED OPPORTUNITY: 0 LATE IN PQ: 0 UNCOVERED: 0
PSCL3 COMMIT LATE MSHR PREFETCHES: 0
PSCL3 MPKI TOTAL: 0 MSHR LATE: 0 PQ LATE: 0 COMMIT LATE: 0 MISSED OPPORTUNITY: 0 UNCOVERED: 0
PSCL3 PREFETCHES SAME FILL-ORIGIN LEVEL: 0 DIFFERENT FILL-ORIGIN LEVEL: 0

PSCL2 SPEC fills:          0  NON-SPEC fills:          0
PSCL2 Test counter :          0
PSCL2 Leapfrog:          0
PSCL2 MSHR merge:          0
PSCL2 TOTAL     ACCESS:          0  HIT:          0  MISS:          0  HIT %:       -nan  MISS %:       -nan   MPKI: 0
PSCL2 PREFETCH  REQUESTED:          0  ISSUED:          0  USEFUL:          0  USELESS:          0
PSCL2 USEFUL LOAD PREFETCHES:          0 PREFETCH ISSUED TO LOWER LEVEL:          0  ACCURACY: -nan
PSCL2 TIMELY PREFETCHES:          0 LATE PREFETCHES: 0 DROPPED PREFETCHES: 0
PSCL2 COMMIT LATE PREFETCHES: 0 MISSED OPPORTUNITY: 0 LATE IN PQ: 0 UNCOVERED: 0
PSCL2 COMMIT LATE MSHR PREFETCHES: 0
PSCL2 MPKI TOTAL: 0 MSHR LATE: 0 PQ LATE: 0 COMMIT LATE: 0 MISSED OPPORTUNITY: 0 UNCOVERED: 0
PSCL2 PREFETCHES SAME FILL-ORIGIN LEVEL: 0 DIFFERENT FILL-ORIGIN LEVEL: 0

LLC SPEC fills:          0  NON-SPEC fills:    1235211
LLC Test counter :          0
LLC Leapfrog:          0
LLC MSHR merge:          0
LLC TOTAL     ACCESS:   56657704  HIT:    9378053  MISS:   47279651  HIT %:    16.5521  MISS %:    83.4479   MPKI: 236.398
LLC LOAD      TOTAL       ACCESS:   21454464  HIT:    5930964  MISS:   15523500  HIT %:    27.6444  MISS %:    72.3556   MPKI: 77.6175
LLC LOAD      NON_SPEC    ACCESS:    1560455  HIT:     325244  MISS:    1235211  HIT %:    20.8429  MISS %:    79.1571   MPKI: 6.17605
LLC LOAD      SPEC        ACCESS:   19894009  HIT:    5605720  MISS:   14288289  HIT %:    28.1779  MISS %:    71.8221   MPKI: 71.4414
LLC RFO       NON_SPEC    ACCESS:     403852  HIT:        104  MISS:     403748  HIT %:   0.025752  MISS %:    99.9742   MPKI: 2.01874
LLC PREFETCH  NON_SPEC    ACCESS:   13977712  HIT:     818050  MISS:   13159662  HIT %:    5.85253  MISS %:    94.1475   MPKI: 65.7983
LLC WRITEBACK NON_SPEC    ACCESS:     494828  HIT:     494245  MISS:        583  HIT %:    99.8822  MISS %:   0.117819   MPKI: 0.002915
LLC CLEAN_EVICTION NON_SPEC    ACCESS:   19567247  HIT:    1883804  MISS:   17683443  HIT %:    9.62733  MISS %:    90.3727   MPKI: 88.4172
LLC COMMIT LOAD NON_SPEC    ACCESS:     754571  HIT:     250511  MISS:     504060  HIT %:    33.1991  MISS %:    66.8009   MPKI: 2.5203
LLC LOAD TRANSLATION NON_SPEC    ACCESS:       5018  HIT:        372  MISS:       4646  HIT %:    7.41331  MISS %:    92.5867   MPKI: 0.02323
LLC TRANSLATION FROM L1D PREFETCHER NON_SPEC    ACCESS:         12  HIT:          3  MISS:          9  HIT %:         25  MISS %:         75   MPKI: 4.5e-05
LLC PREFETCH  REQUESTED:          0  ISSUED:          0  USEFUL:     102012  USELESS:   13059189
LLC USEFUL LOAD PREFETCHES:     102012 PREFETCH ISSUED TO LOWER LEVEL:   13159663  ACCURACY: 0.775187
LLC TIMELY PREFETCHES:     102012 LATE PREFETCHES: 0 DROPPED PREFETCHES: 0
LLC COMMIT LATE PREFETCHES: 0 MISSED OPPORTUNITY: 0 LATE IN PQ: 0 UNCOVERED: 0
LLC COMMIT LATE MSHR PREFETCHES: 0
LLC MPKI TOTAL: 77.6175 MSHR LATE: 0 PQ LATE: 0 COMMIT LATE: 0 MISSED OPPORTUNITY: 0 UNCOVERED: 0
LLC PREFETCHES SAME FILL-ORIGIN LEVEL: 0 DIFFERENT FILL-ORIGIN LEVEL: 0
LLC AVERAGE MISS LATENCY: 157.119 cycles
LLC AVERAGE MISS LATENCY LOAD: 230.905 cycles
LLC AVERAGE MISS LATENCY PREFETCH: 275.422 cycles
LLC AVERAGE MSHR OCCUPANCY: 5.41068
LLC MSHR FULL: 0
LLC RQ	ACCESS:   22617917	FORWARD:          0	MERGED:          0	TO_CACHE:   22617917
LLC WQ	ACCESS:   20062075	FORWARD:          0	MERGED:          0	TO_CACHE:   20062075
LLC PQ	ACCESS:   13977713	FORWARD:          0	MERGED:          0	TO_CACHE:   13977713

LLC Dense regions hint to LLC: 0

RAW hits: 8345092
Loads Generated: 91532953
Loads sent to L1D: 83187859
Stores Generated: 13518701
Stores sent to L1D: 13518702
Major fault: 0 Minor fault: 17320
Allocated PAGES: 17320
Total Load insts: 103485585
Total Non-spec loads: 8689282
Percentage of speculative loads: 91.6034

LeapFrogging counter: 32979789
Commit hits: 38752318 miss: 36538246
Commit hit %: 51.4704 miss %: 48.5296
Commits not translated: 0
Loads retired: 25359017
Stores retired: 13518702
Cache fills: 25359022
L1D response latency: 179.601 cycles
Load retirement latency: 453.077 cycles
OOO test counter: 0
Discarded buffer inserts: 38752318 hits: 36767 hit %: 0.0948769
Filter prediction accuracy: 94.1548
Speculative prefetch buffer size: 0
CPU 0 L1D PC-based stride prefetcher final stats
Degree: 3

DRAM Statistics
 CHANNEL 0
 RQ ROW_BUFFER_HIT:   12776410  ROW_BUFFER_MISS:   16808050
 DBUS_CONGESTED:      10288
 WQ ROW_BUFFER_HIT:    4571515  ROW_BUFFER_MISS:   15040715  FULL:     137150

 AVG_CONGESTED_CYCLE: 5
 All warmup complete: 2
Channel 0 Bank busy for read cycles: 0
Channel 0 Bank busy for write cycles: 0
Channel 0
Rank 0
0banks busy for read cycles: 59885309
0banks busy for write cycles: 82906
1banks busy for read cycles: 138567070
1banks busy for write cycles: 12397138
2banks busy for read cycles: 116613646
2banks busy for write cycles: 9844283
3banks busy for read cycles: 101462326
3banks busy for write cycles: 9245193
4banks busy for read cycles: 98861760
4banks busy for write cycles: 9578946
5banks busy for read cycles: 93403257
5banks busy for write cycles: 10674126
6banks busy for read cycles: 89282994
6banks busy for write cycles: 15064702
7banks busy for read cycles: 88475064
7banks busy for write cycles: 64096398
8banks busy for read cycles: 75362248
8banks busy for write cycles: 385240039

CPU 0 Branch Prediction Accuracy: 98.8241% MPKI: 2.1554 Average ROB Occupancy at Mispredict: 75.2426
Branch types
NOT_BRANCH: 163339812 81.6699%
BRANCH_DIRECT_JUMP: 8413977 4.20699%
BRANCH_INDIRECT: 0 0%
BRANCH_CONDITIONAL: 28243014 14.1215%
BRANCH_DIRECT_CALL: 1578 0.000789%
BRANCH_INDIRECT_CALL: 0 0%
BRANCH_RETURN: 1578 0.000789%
BRANCH_OTHER: 0 0%

DRAM PAGES: 1048576
Allocated PAGES: 17320
