
*** ChampSim Multicore Out-of-Order Simulator ***

Warmup Instructions: 50000000
Simulation Instructions: 200000000
Number of CPUs: 1
LLC sets: 2048
LLC ways: 16
L0D sets: 16
L0D ways: 2
ROB size: 352
LQ size: 128
SQ size: 72
Secure Berti: OFF
Berti: OFF
Berti Fill: OFF
On commit prefetching: OFF
Hit-based filter: ON
Time-guarding: ON
Free-slotting: ON
Leap-frogging: ON
Train prefetcher on L0D bypass: OFF
No translation penalty for prefetchers: OFF
Prefetch to L0D only: OFF
Prefetch to L1D only: OFF
Clean evictions: ON
Commit loads: ON
Commit write: ON
Fill commit loads to L2C, LLC: ON
DRAM IO FREQUENCY: 6400
ROB SIZE: 352
Off-chip DRAM Size: 4096 MB Channels: 1 Width: 64-bit Data Rate: 6400 MT/s
CPU 0 runs /home/sumon/secure_berti/GhostMinion/../../traces/spec/605.mcf_s-484B.champsimtrace.xz
.xz
BTB has LRU replacement policy
ITLB has LRU replacement policy
DTLB has LRU replacement policy
STLB has LRU replacement policy
L1I has LRU replacement policy
L0D has LRU replacement policy
CPU 0 L1D IP-based stride prefetcher
L1D has LRU replacement policy
L2C has LRU replacement policy
LLC has LRU replacement policy
Heartbeat CPU 0 instructions: 10000001 cycles: 5820316 heartbeat IPC: 1.71812 cumulative IPC: 1.71812 (Simulation time: 0 hr 0 min 41 sec) 
Heartbeat CPU 0 instructions: 20000000 cycles: 11549673 heartbeat IPC: 1.7454 cumulative IPC: 1.73165 (Simulation time: 0 hr 1 min 24 sec) 
Heartbeat CPU 0 instructions: 30000001 cycles: 17058160 heartbeat IPC: 1.81538 cumulative IPC: 1.75869 (Simulation time: 0 hr 2 min 8 sec) 
Heartbeat CPU 0 instructions: 40000000 cycles: 22845266 heartbeat IPC: 1.72798 cumulative IPC: 1.75091 (Simulation time: 0 hr 2 min 50 sec) 
Heartbeat CPU 0 instructions: 50000000 cycles: 28527885 heartbeat IPC: 1.75975 cumulative IPC: 1.75267 (Simulation time: 0 hr 3 min 35 sec) 

Warmup complete CPU 0 instructions: 50000004 cycles: 28527886 (Simulation time: 0 hr 3 min 35 sec) 

Heartbeat CPU 0 instructions: 60000003 cycles: 55946153 heartbeat IPC: 0.36472 cumulative IPC: 0.36472 (Simulation time: 0 hr 4 min 40 sec) 
Heartbeat CPU 0 instructions: 70000003 cycles: 92031222 heartbeat IPC: 0.277123 cumulative IPC: 0.314944 (Simulation time: 0 hr 5 min 56 sec) 
Heartbeat CPU 0 instructions: 80000000 cycles: 126400081 heartbeat IPC: 0.290961 cumulative IPC: 0.306522 (Simulation time: 0 hr 7 min 6 sec) 
Heartbeat CPU 0 instructions: 90000000 cycles: 158010130 heartbeat IPC: 0.316355 cumulative IPC: 0.308923 (Simulation time: 0 hr 8 min 18 sec) 
Heartbeat CPU 0 instructions: 100000000 cycles: 185341297 heartbeat IPC: 0.365883 cumulative IPC: 0.31885 (Simulation time: 0 hr 9 min 24 sec) 
Heartbeat CPU 0 instructions: 110000000 cycles: 213576278 heartbeat IPC: 0.354171 cumulative IPC: 0.324239 (Simulation time: 0 hr 10 min 32 sec) 
Heartbeat CPU 0 instructions: 120000001 cycles: 236982578 heartbeat IPC: 0.427235 cumulative IPC: 0.335804 (Simulation time: 0 hr 11 min 34 sec) 
Heartbeat CPU 0 instructions: 130000000 cycles: 261317815 heartbeat IPC: 0.410927 cumulative IPC: 0.343657 (Simulation time: 0 hr 12 min 34 sec) 
Heartbeat CPU 0 instructions: 140000001 cycles: 289370047 heartbeat IPC: 0.356478 cumulative IPC: 0.345036 (Simulation time: 0 hr 13 min 30 sec) 
Heartbeat CPU 0 instructions: 150000001 cycles: 313253918 heartbeat IPC: 0.418693 cumulative IPC: 0.351215 (Simulation time: 0 hr 14 min 21 sec) 
Heartbeat CPU 0 instructions: 160000001 cycles: 339625234 heartbeat IPC: 0.3792 cumulative IPC: 0.353587 (Simulation time: 0 hr 15 min 14 sec) 
Heartbeat CPU 0 instructions: 170000000 cycles: 369258713 heartbeat IPC: 0.337456 cumulative IPC: 0.352184 (Simulation time: 0 hr 16 min 10 sec) 
Heartbeat CPU 0 instructions: 180000000 cycles: 396770983 heartbeat IPC: 0.363474 cumulative IPC: 0.353028 (Simulation time: 0 hr 17 min 2 sec) 
Heartbeat CPU 0 instructions: 190000000 cycles: 424216203 heartbeat IPC: 0.364362 cumulative IPC: 0.353814 (Simulation time: 0 hr 17 min 53 sec) 
Heartbeat CPU 0 instructions: 200000001 cycles: 460042376 heartbeat IPC: 0.279126 cumulative IPC: 0.347613 (Simulation time: 0 hr 18 min 52 sec) 
Heartbeat CPU 0 instructions: 210000002 cycles: 496607923 heartbeat IPC: 0.273482 cumulative IPC: 0.341822 (Simulation time: 0 hr 19 min 50 sec) 
Heartbeat CPU 0 instructions: 220000000 cycles: 522730825 heartbeat IPC: 0.382806 cumulative IPC: 0.343988 (Simulation time: 0 hr 20 min 40 sec) 
Heartbeat CPU 0 instructions: 230000002 cycles: 548771733 heartbeat IPC: 0.384011 cumulative IPC: 0.345992 (Simulation time: 0 hr 21 min 28 sec) 
Heartbeat CPU 0 instructions: 240000000 cycles: 576274075 heartbeat IPC: 0.363605 cumulative IPC: 0.346876 (Simulation time: 0 hr 22 min 17 sec) 
Heartbeat CPU 0 instructions: 250000001 cycles: 608371189 heartbeat IPC: 0.311555 cumulative IPC: 0.344921 (Simulation time: 0 hr 23 min 11 sec) 
Finished CPU 0 instructions: 200000001 cycles: 579843305 cumulative IPC: 0.344921 (Simulation time: 0 hr 23 min 11 sec) 
 Instruction ID: 250000298

ChampSim completed all CPUs

Region of Interest Statistics

CPU 0 cumulative IPC: 0.344921 instructions: 200000001 cycles: 579843305
ITLB SPEC fills:          0  NON-SPEC fills:          0
ITLB Test counter :          0
ITLB Leapfrog:          0
ITLB MSHR merge:          0
ITLB TOTAL     ACCESS:   32593493  HIT:   32593493  MISS:          0  HIT %:        100  MISS %:          0   MPKI: 0
ITLB LOAD TRANSLATION NON_SPEC    ACCESS:   32593493  HIT:   32593493  MISS:          0  HIT %:        100  MISS %:          0   MPKI: 0
ITLB PREFETCH  REQUESTED:          0  ISSUED:          0  USEFUL:          0  USELESS:          0
ITLB USEFUL LOAD PREFETCHES:          0 PREFETCH ISSUED TO LOWER LEVEL:          0  ACCURACY: -nan
ITLB TIMELY PREFETCHES:          0 LATE PREFETCHES: 0 DROPPED PREFETCHES: 0
ITLB COMMIT LATE PREFETCHES: 0 MISSED OPPORTUNITY: 0 LATE IN PQ: 0 UNCOVERED: 0
ITLB COMMIT LATE MSHR PREFETCHES: 0
ITLB MPKI TOTAL: 0 MSHR LATE: 0 PQ LATE: 0 COMMIT LATE: 0 MISSED OPPORTUNITY: 0 UNCOVERED: 0
ITLB PREFETCHES SAME FILL-ORIGIN LEVEL: 0 DIFFERENT FILL-ORIGIN LEVEL: 0
ITLB AVERAGE MISS LATENCY: -nan cycles
ITLB AVERAGE MISS LATENCY LOAD: -nan cycles
ITLB AVERAGE MISS LATENCY PREFETCH: -nan cycles
ITLB AVERAGE MSHR OCCUPANCY: 0
ITLB MSHR FULL: 0
ITLB RQ	ACCESS:   42984520	FORWARD:          0	MERGED:   10391027	TO_CACHE:   32593493

DTLB SPEC fills:          0  NON-SPEC fills:          0
DTLB Test counter :          0
DTLB Leapfrog:          0
DTLB MSHR merge:          0
DTLB TOTAL     ACCESS:   56306035  HIT:   55828094  MISS:     477941  HIT %:    99.1512  MISS %:   0.848827   MPKI: 2.3897
DTLB LOAD TRANSLATION NON_SPEC    ACCESS:   56306035  HIT:   55828094  MISS:     477941  HIT %:    99.1512  MISS %:   0.848827   MPKI: 2.3897
DTLB PREFETCH  REQUESTED:          0  ISSUED:          0  USEFUL:          0  USELESS:          0
DTLB USEFUL LOAD PREFETCHES:          0 PREFETCH ISSUED TO LOWER LEVEL:          0  ACCURACY: -nan
DTLB TIMELY PREFETCHES:          0 LATE PREFETCHES: 0 DROPPED PREFETCHES: 0
DTLB COMMIT LATE PREFETCHES: 0 MISSED OPPORTUNITY: 0 LATE IN PQ: 0 UNCOVERED: 0
DTLB COMMIT LATE MSHR PREFETCHES: 0
DTLB MPKI TOTAL: 0 MSHR LATE: 0 PQ LATE: 0 COMMIT LATE: 0 MISSED OPPORTUNITY: 0 UNCOVERED: 0
DTLB PREFETCHES SAME FILL-ORIGIN LEVEL: 0 DIFFERENT FILL-ORIGIN LEVEL: 0
DTLB AVERAGE MISS LATENCY: 49.729 cycles
DTLB AVERAGE MISS LATENCY LOAD: -nan cycles
DTLB AVERAGE MISS LATENCY PREFETCH: -nan cycles
DTLB AVERAGE MSHR OCCUPANCY: 0.0197537
DTLB MSHR FULL: 0
DTLB RQ	ACCESS:   97706264	FORWARD:          0	MERGED:   41276058	TO_CACHE:   56430206

STLB SPEC fills:          0  NON-SPEC fills:          0
STLB Test counter :          0
STLB Leapfrog:          0
STLB MSHR merge:          0
STLB TOTAL     ACCESS:    1751824  HIT:    1605814  MISS:     146010  HIT %:    91.6653  MISS %:    8.33474   MPKI: 0.73005
STLB LOAD TRANSLATION NON_SPEC    ACCESS:     477941  HIT:     331945  MISS:     145996  HIT %:    69.4531  MISS %:    30.5469   MPKI: 0.72998
STLB TRANSLATION FROM L1D PREFETCHER NON_SPEC    ACCESS:    1273883  HIT:    1273869  MISS:         14  HIT %:    99.9989  MISS %:   0.001099   MPKI: 7e-05
STLB PREFETCH  REQUESTED:          0  ISSUED:          0  USEFUL:         10  USELESS:          4
STLB USEFUL LOAD PREFETCHES:         10 PREFETCH ISSUED TO LOWER LEVEL:          0  ACCURACY: inf
STLB TIMELY PREFETCHES:         10 LATE PREFETCHES: 0 DROPPED PREFETCHES: 0
STLB COMMIT LATE PREFETCHES: 0 MISSED OPPORTUNITY: 0 LATE IN PQ: 0 UNCOVERED: 0
STLB COMMIT LATE MSHR PREFETCHES: 0
STLB MPKI TOTAL: 0 MSHR LATE: 0 PQ LATE: 0 COMMIT LATE: 0 MISSED OPPORTUNITY: 0 UNCOVERED: 0
STLB PREFETCHES SAME FILL-ORIGIN LEVEL: 0 DIFFERENT FILL-ORIGIN LEVEL: 0
STLB AVERAGE MISS LATENCY: 133.313 cycles
STLB AVERAGE MISS LATENCY LOAD: -nan cycles
STLB AVERAGE MISS LATENCY PREFETCH: -nan cycles
STLB AVERAGE MSHR OCCUPANCY: 0.043332
STLB MSHR FULL: 0
STLB RQ	ACCESS:    4197701	FORWARD:          0	MERGED:    2445877	TO_CACHE:    1751824

STLB Hit, L1D data hit: 0
STLB Hit, L2C data hit: 0
STLB Hit, LLC data hit: 0
STLB Hit, LLC data miss: 0
STLB STLB hints to L2: 0
L0D SPEC fills:   26800454  NON-SPEC fills:          0
L0D TimeGuard Request with older TS:     490735 Restricted eviction:     154151 read:     801337
L0D Test counter :          0
L0D Leapfrog:          0
L0D MSHR merge:    1958736
L0D TOTAL     ACCESS:   38404338  HIT:    4652057  MISS:   33752281  HIT %:    12.1134  MISS %:    87.8866   MPKI: 168.761
L0D LOAD      TOTAL       ACCESS:   38404338  HIT:    4652057  MISS:   33752281  HIT %:    12.1134  MISS %:    87.8866   MPKI: 168.761
L0D LOAD      NON_SPEC    ACCESS:    7222731  HIT:     425055  MISS:    6797676  HIT %:    5.88496  MISS %:     94.115   MPKI: 33.9884
L0D LOAD      SPEC        ACCESS:   31181607  HIT:    4227002  MISS:   26954605  HIT %:    13.5561  MISS %:    86.4439   MPKI: 134.773
L0D PREFETCH  REQUESTED:          0  ISSUED:          0  USEFUL:          0  USELESS:          0
L0D USEFUL LOAD PREFETCHES:          0 PREFETCH ISSUED TO LOWER LEVEL:          0  ACCURACY: -nan
L0D TIMELY PREFETCHES:          0 LATE PREFETCHES: 0 DROPPED PREFETCHES: 0
L0D COMMIT LATE PREFETCHES: 0 MISSED OPPORTUNITY: 0 LATE IN PQ: 0 UNCOVERED: 0
L0D COMMIT LATE MSHR PREFETCHES: 0
L0D MPKI TOTAL: 178.555 MSHR LATE: 0 PQ LATE: 0 COMMIT LATE: 0 MISSED OPPORTUNITY: 0 UNCOVERED: 0
L0D PREFETCHES SAME FILL-ORIGIN LEVEL: 0 DIFFERENT FILL-ORIGIN LEVEL: 0
L0D AVERAGE MISS LATENCY: 28.9557 cycles
L0D AVERAGE MISS LATENCY LOAD: 28.9557 cycles
L0D AVERAGE MISS LATENCY PREFETCH: -nan cycles
L0D AVERAGE MSHR OCCUPANCY: 1.8906
L0D MSHR FULL: 0.0818123
L0D RQ	ACCESS:   62778222	FORWARD:          0	MERGED:   22415146	TO_CACHE:   40363076
L0D WQ	ACCESS:   57343188	FORWARD:          0	MERGED:          0	TO_CACHE:   57343188

L1D SPEC fills:          0  NON-SPEC fills:     755437
L1D Test counter :          0
L1D Leapfrog:          0
L1D MSHR merge:      75692
L1D TOTAL     ACCESS:   95470851  HIT:   86351294  MISS:    9119557  HIT %:    90.4478  MISS %:    9.55219   MPKI: 45.5978
L1D LOAD      TOTAL       ACCESS:   33750696  HIT:   29808100  MISS:    3942596  HIT %:    88.3185  MISS %:    11.6815   MPKI: 19.713
L1D LOAD      NON_SPEC    ACCESS:    6796499  HIT:    6041062  MISS:     755437  HIT %:    88.8849  MISS %:    11.1151   MPKI: 3.77718
L1D LOAD      SPEC        ACCESS:   26954197  HIT:   23767038  MISS:    3187159  HIT %:    88.1756  MISS %:    11.8244   MPKI: 15.9358
L1D RFO       NON_SPEC    ACCESS:   55153714  HIT:   54660085  MISS:     493629  HIT %:     99.105  MISS %:   0.895006   MPKI: 2.46814
L1D PREFETCH  NON_SPEC    ACCESS:    2790850  HIT:    1203524  MISS:    1587326  HIT %:    43.1239  MISS %:    56.8761   MPKI: 7.93663
L1D COMMIT LOAD NON_SPEC    ACCESS:     695073  HIT:     616789  MISS:      78284  HIT %:    88.7373  MISS %:    11.2627   MPKI: 0.39142
L1D COMMIT WRITE NON_SPEC    ACCESS:    3080518  HIT:      62796  MISS:    3017722  HIT %:    2.03849  MISS %:    97.9615   MPKI: 15.0886
L1D PREFETCH  REQUESTED:    3736164  ISSUED:    3736164  USEFUL:    1107007  USELESS:     480322
L1D USEFUL LOAD PREFETCHES:    1107007 PREFETCH ISSUED TO LOWER LEVEL:    2181601  ACCURACY: 50.7429
L1D TIMELY PREFETCHES:    1107007 LATE PREFETCHES: 74130 DROPPED PREFETCHES: 0
L1D COMMIT LATE PREFETCHES: 0 MISSED OPPORTUNITY: 0 LATE IN PQ: 0 UNCOVERED: 0
L1D COMMIT LATE MSHR PREFETCHES: 0
L1D MPKI TOTAL: 19.7209 MSHR LATE: 0.37065 PQ LATE: 0 COMMIT LATE: 0 MISSED OPPORTUNITY: 0 UNCOVERED: 0
L1D PREFETCHES SAME FILL-ORIGIN LEVEL: 1661457 DIFFERENT FILL-ORIGIN LEVEL: 520144
L1D AVERAGE MISS LATENCY: 143.634 cycles
L1D AVERAGE MISS LATENCY LOAD: 199.169 cycles
L1D AVERAGE MISS LATENCY PREFETCH: 242.441 cycles
L1D AVERAGE MSHR OCCUPANCY: 1.21487
L1D MSHR FULL: 0.00041307
L1D RQ	ACCESS:   34643675	FORWARD:          0	MERGED:     186319	TO_CACHE:   34457141
L1D WQ	ACCESS:   60423710	FORWARD:        215	MERGED:     664540	TO_CACHE:   59759170
L1D PQ	ACCESS:    3736164	FORWARD:          0	MERGED:      16404	TO_CACHE:    3719760

L1D UNIQUE REGIONS ACCESSED: 0
L1D REGIONS CONFLICTS: 0
L1D Cross Page Prefetch Requests: 0
L1D Same Page Prefetch Requests: 4491007
L1D ROI Sum of L1D PQ occupancy: 49983780
L1D PREFETCHES PUSHED FROM L2C: 0
L1I SPEC fills:          0  NON-SPEC fills:          0
L1I Test counter :          0
L1I Leapfrog:          0
L1I MSHR merge:          0
L1I TOTAL     ACCESS:   42984520  HIT:   42984520  MISS:          0  HIT %:        100  MISS %:          0   MPKI: 0
L1I LOAD      TOTAL       ACCESS:   42984520  HIT:   42984520  MISS:          0  HIT %:        100  MISS %:          0   MPKI: 0
L1I LOAD      NON_SPEC    ACCESS:   42984520  HIT:   42984520  MISS:          0  HIT %:        100  MISS %:          0   MPKI: 0
L1I PREFETCH  REQUESTED:          0  ISSUED:          0  USEFUL:          0  USELESS:          0
L1I USEFUL LOAD PREFETCHES:          0 PREFETCH ISSUED TO LOWER LEVEL:          0  ACCURACY: -nan
L1I TIMELY PREFETCHES:          0 LATE PREFETCHES: 0 DROPPED PREFETCHES: 0
L1I COMMIT LATE PREFETCHES: 0 MISSED OPPORTUNITY: 0 LATE IN PQ: 0 UNCOVERED: 0
L1I COMMIT LATE MSHR PREFETCHES: 0
L1I MPKI TOTAL: 0 MSHR LATE: 0 PQ LATE: 0 COMMIT LATE: 0 MISSED OPPORTUNITY: 0 UNCOVERED: 0
L1I PREFETCHES SAME FILL-ORIGIN LEVEL: 0 DIFFERENT FILL-ORIGIN LEVEL: 0
L1I AVERAGE MISS LATENCY: -nan cycles
L1I AVERAGE MISS LATENCY LOAD: -nan cycles
L1I AVERAGE MISS LATENCY PREFETCH: -nan cycles
L1I AVERAGE MSHR OCCUPANCY: 0
L1I MSHR FULL: 0
L1I RQ	ACCESS:   57975356	FORWARD:          0	MERGED:   14990836	TO_CACHE:   42984520

BTB SPEC fills:          0  NON-SPEC fills:          0
BTB Test counter :          0
BTB Leapfrog:          0
BTB MSHR merge:          0
BTB TOTAL     ACCESS:   19468364  HIT:   19468330  MISS:         34  HIT %:    99.9998  MISS %: 0.000174642   MPKI: 0.00017
BTB BRANCH_DIRECT_JUMP	ACCESS:     976614  HIT:     976608  MISS:          6
BTB BRANCH_INDIRECT	ACCESS:          0  HIT:          0  MISS:          0
BTB BRANCH_CONDITIONAL	ACCESS:   18491562  HIT:   18491538  MISS:         24
BTB BRANCH_DIRECT_CALL	ACCESS:         94  HIT:         92  MISS:          2
BTB BRANCH_INDIRECT_CALL	ACCESS:          0  HIT:          0  MISS:          0
BTB BRANCH_RETURN	ACCESS:         94  HIT:         92  MISS:          2
BTB BRANCH_OTHER ACCESS:          0  HIT:          0  MISS:          0

L2C SPEC fills:          0  NON-SPEC fills:     688649
L2C Test counter :          0
L2C Leapfrog:          0
L2C MSHR merge:      24374
L2C TOTAL     ACCESS:   10856471  HIT:    2047584  MISS:    8808887  HIT %:    18.8605  MISS %:    81.1395   MPKI: 44.0444
L2C LOAD      TOTAL       ACCESS:    3868421  HIT:     342033  MISS:    3526388  HIT %:    8.84167  MISS %:    91.1583   MPKI: 17.6319
L2C LOAD      NON_SPEC    ACCESS:     754595  HIT:      65946  MISS:     688649  HIT %:    8.73926  MISS %:    91.2607   MPKI: 3.44324
L2C LOAD      SPEC        ACCESS:    3113826  HIT:     276087  MISS:    2837739  HIT %:    8.86649  MISS %:    91.1335   MPKI: 14.1887
L2C RFO       NON_SPEC    ACCESS:     493603  HIT:       3949  MISS:     489654  HIT %:   0.800036  MISS %:       99.2   MPKI: 2.44827
L2C PREFETCH  NON_SPEC    ACCESS:    2107814  HIT:     101924  MISS:    2005890  HIT %:    4.83553  MISS %:    95.1645   MPKI: 10.0294
L2C WRITEBACK NON_SPEC    ACCESS:     734495  HIT:     733375  MISS:       1120  HIT %:    99.8475  MISS %:   0.152486   MPKI: 0.0056
L2C CLEAN_EVICTION NON_SPEC    ACCESS:    2843925  HIT:     145433  MISS:    2698492  HIT %:    5.11381  MISS %:    94.8862   MPKI: 13.4925
L2C COMMIT LOAD NON_SPEC    ACCESS:      78260  HIT:      13020  MISS:      65240  HIT %:    16.6369  MISS %:    83.3631   MPKI: 0.3262
L2C LOAD TRANSLATION NON_SPEC    ACCESS:     729883  HIT:     707794  MISS:      22089  HIT %:    96.9736  MISS %:    3.02638   MPKI: 0.110445
L2C TRANSLATION FROM L1D PREFETCHER NON_SPEC    ACCESS:         70  HIT:         56  MISS:         14  HIT %:         80  MISS %:         20   MPKI: 7e-05
L2C PREFETCH  REQUESTED:          0  ISSUED:          0  USEFUL:     211914  USELESS:    1794562
L2C USEFUL LOAD PREFETCHES:     211914 PREFETCH ISSUED TO LOWER LEVEL:    2030265  ACCURACY: 10.4378
L2C TIMELY PREFETCHES:     211914 LATE PREFETCHES: 24375 DROPPED PREFETCHES: 0
L2C COMMIT LATE PREFETCHES: 0 MISSED OPPORTUNITY: 0 LATE IN PQ: 0 UNCOVERED: 0
L2C COMMIT LATE MSHR PREFETCHES: 0
L2C MPKI TOTAL: 17.6319 MSHR LATE: 0.121875 PQ LATE: 0 COMMIT LATE: 0 MISSED OPPORTUNITY: 0 UNCOVERED: 0
L2C PREFETCHES SAME FILL-ORIGIN LEVEL: 480443 DIFFERENT FILL-ORIGIN LEVEL: 0
L2C AVERAGE MISS LATENCY: 157.466 cycles
L2C AVERAGE MISS LATENCY LOAD: 207.291 cycles
L2C AVERAGE MISS LATENCY PREFETCH: 258.777 cycles
L2C AVERAGE MSHR OCCUPANCY: 3.71751
L2C MSHR FULL: 0
L2C RQ	ACCESS:    5170331	FORWARD:          0	MERGED:          0	TO_CACHE:    5170237
L2C WQ	ACCESS:    3578420	FORWARD:         94	MERGED:          0	TO_CACHE:    3578420
L2C PQ	ACCESS:    2181601	FORWARD:          0	MERGED:          4	TO_CACHE:    2181597

L2C Instructions Evicting Data 0
L2C Translations Evicting Data 22057
L2C Data Evicting Data 3237403
L2C Instructions Evicting Instructions 0
L2C Translations Evicting Instructions 0
L2C Data Evicting Instructions 0
L2C Instructions Evicting Translations 0
L2C Translations Evicting Translations 46
L2C Data Evicting Translations 12030
L2C Dense regions hint from L2: 0
PSCL5 SPEC fills:          0  NON-SPEC fills:          0
PSCL5 Test counter :          0
PSCL5 Leapfrog:          0
PSCL5 MSHR merge:          0
PSCL5 TOTAL     ACCESS:          0  HIT:          0  MISS:          0  HIT %:       -nan  MISS %:       -nan   MPKI: 0
PSCL5 PREFETCH  REQUESTED:          0  ISSUED:          0  USEFUL:          0  USELESS:          0
PSCL5 USEFUL LOAD PREFETCHES:          0 PREFETCH ISSUED TO LOWER LEVEL:          0  ACCURACY: -nan
PSCL5 TIMELY PREFETCHES:          0 LATE PREFETCHES: 0 DROPPED PREFETCHES: 0
PSCL5 COMMIT LATE PREFETCHES: 0 MISSED OPPORTUNITY: 0 LATE IN PQ: 0 UNCOVERED: 0
PSCL5 COMMIT LATE MSHR PREFETCHES: 0
PSCL5 MPKI TOTAL: 0 MSHR LATE: 0 PQ LATE: 0 COMMIT LATE: 0 MISSED OPPORTUNITY: 0 UNCOVERED: 0
PSCL5 PREFETCHES SAME FILL-ORIGIN LEVEL: 0 DIFFERENT FILL-ORIGIN LEVEL: 0

PSCL4 SPEC fills:          0  NON-SPEC fills:          0
PSCL4 Test counter :          0
PSCL4 Leapfrog:          0
PSCL4 MSHR merge:          0
PSCL4 TOTAL     ACCESS:          0  HIT:          0  MISS:          0  HIT %:       -nan  MISS %:       -nan   MPKI: 0
PSCL4 PREFETCH  REQUESTED:          0  ISSUED:          0  USEFUL:          0  USELESS:          0
PSCL4 USEFUL LOAD PREFETCHES:          0 PREFETCH ISSUED TO LOWER LEVEL:          0  ACCURACY: -nan
PSCL4 TIMELY PREFETCHES:          0 LATE PREFETCHES: 0 DROPPED PREFETCHES: 0
PSCL4 COMMIT LATE PREFETCHES: 0 MISSED OPPORTUNITY: 0 LATE IN PQ: 0 UNCOVERED: 0
PSCL4 COMMIT LATE MSHR PREFETCHES: 0
PSCL4 MPKI TOTAL: 0 MSHR LATE: 0 PQ LATE: 0 COMMIT LATE: 0 MISSED OPPORTUNITY: 0 UNCOVERED: 0
PSCL4 PREFETCHES SAME FILL-ORIGIN LEVEL: 0 DIFFERENT FILL-ORIGIN LEVEL: 0

PSCL3 SPEC fills:          0  NON-SPEC fills:          0
PSCL3 Test counter :          0
PSCL3 Leapfrog:          0
PSCL3 MSHR merge:          0
PSCL3 TOTAL     ACCESS:          0  HIT:          0  MISS:          0  HIT %:       -nan  MISS %:       -nan   MPKI: 0
PSCL3 PREFETCH  REQUESTED:          0  ISSUED:          0  USEFUL:          0  USELESS:          0
PSCL3 USEFUL LOAD PREFETCHES:          0 PREFETCH ISSUED TO LOWER LEVEL:          0  ACCURACY: -nan
PSCL3 TIMELY PREFETCHES:          0 LATE PREFETCHES: 0 DROPPED PREFETCHES: 0
PSCL3 COMMIT LATE PREFETCHES: 0 MISSED OPPORTUNITY: 0 LATE IN PQ: 0 UNCOVERED: 0
PSCL3 COMMIT LATE MSHR PREFETCHES: 0
PSCL3 MPKI TOTAL: 0 MSHR LATE: 0 PQ LATE: 0 COMMIT LATE: 0 MISSED OPPORTUNITY: 0 UNCOVERED: 0
PSCL3 PREFETCHES SAME FILL-ORIGIN LEVEL: 0 DIFFERENT FILL-ORIGIN LEVEL: 0

PSCL2 SPEC fills:          0  NON-SPEC fills:          0
PSCL2 Test counter :          0
PSCL2 Leapfrog:          0
PSCL2 MSHR merge:          0
PSCL2 TOTAL     ACCESS:          0  HIT:          0  MISS:          0  HIT %:       -nan  MISS %:       -nan   MPKI: 0
PSCL2 PREFETCH  REQUESTED:          0  ISSUED:          0  USEFUL:          0  USELESS:          0
PSCL2 USEFUL LOAD PREFETCHES:          0 PREFETCH ISSUED TO LOWER LEVEL:          0  ACCURACY: -nan
PSCL2 TIMELY PREFETCHES:          0 LATE PREFETCHES: 0 DROPPED PREFETCHES: 0
PSCL2 COMMIT LATE PREFETCHES: 0 MISSED OPPORTUNITY: 0 LATE IN PQ: 0 UNCOVERED: 0
PSCL2 COMMIT LATE MSHR PREFETCHES: 0
PSCL2 MPKI TOTAL: 0 MSHR LATE: 0 PQ LATE: 0 COMMIT LATE: 0 MISSED OPPORTUNITY: 0 UNCOVERED: 0
PSCL2 PREFETCHES SAME FILL-ORIGIN LEVEL: 0 DIFFERENT FILL-ORIGIN LEVEL: 0

LLC SPEC fills:          0  NON-SPEC fills:     686363
LLC Test counter :          0
LLC Leapfrog:          0
LLC MSHR merge:          0
LLC TOTAL     ACCESS:    9609251  HIT:     845372  MISS:    8763879  HIT %:    8.79748  MISS %:    91.2025   MPKI: 43.8194
LLC LOAD      TOTAL       ACCESS:    3502014  HIT:      11265  MISS:    3490749  HIT %:   0.321672  MISS %:    99.6783   MPKI: 17.4537
LLC LOAD      NON_SPEC    ACCESS:     688564  HIT:       2201  MISS:     686363  HIT %:   0.319651  MISS %:    99.6803   MPKI: 3.43181
LLC LOAD      SPEC        ACCESS:    2813450  HIT:       9064  MISS:    2804386  HIT %:   0.322167  MISS %:    99.6778   MPKI: 14.0219
LLC RFO       NON_SPEC    ACCESS:     489654  HIT:        101  MISS:     489553  HIT %:  0.0206268  MISS %:    99.9794   MPKI: 2.44776
LLC PREFETCH  NON_SPEC    ACCESS:    2030265  HIT:         42  MISS:    2030223  HIT %:  0.0020687  MISS %:    99.9979   MPKI: 10.1511
LLC WRITEBACK NON_SPEC    ACCESS:     721198  HIT:     720506  MISS:        692  HIT %:     99.904  MISS %:  0.0959515   MPKI: 0.00346
LLC CLEAN_EVICTION NON_SPEC    ACCESS:    2778778  HIT:     110811  MISS:    2667967  HIT %:    3.98776  MISS %:    96.0122   MPKI: 13.3398
LLC COMMIT LOAD NON_SPEC    ACCESS:      65239  HIT:       1224  MISS:      64015  HIT %:    1.87618  MISS %:    98.1238   MPKI: 0.320075
LLC LOAD TRANSLATION NON_SPEC    ACCESS:      22089  HIT:       1423  MISS:      20666  HIT %:    6.44212  MISS %:    93.5579   MPKI: 0.10333
LLC TRANSLATION FROM L1D PREFETCHER NON_SPEC    ACCESS:         14  HIT:          0  MISS:         14  HIT %:          0  MISS %:        100   MPKI: 7e-05
LLC PREFETCH  REQUESTED:          0  ISSUED:          0  USEFUL:       2906  USELESS:    2025372
LLC USEFUL LOAD PREFETCHES:       2906 PREFETCH ISSUED TO LOWER LEVEL:    2030223  ACCURACY: 0.143137
LLC TIMELY PREFETCHES:       2906 LATE PREFETCHES: 0 DROPPED PREFETCHES: 0
LLC COMMIT LATE PREFETCHES: 0 MISSED OPPORTUNITY: 0 LATE IN PQ: 0 UNCOVERED: 0
LLC COMMIT LATE MSHR PREFETCHES: 0
LLC MPKI TOTAL: 17.4537 MSHR LATE: 0 PQ LATE: 0 COMMIT LATE: 0 MISSED OPPORTUNITY: 0 UNCOVERED: 0
LLC PREFETCHES SAME FILL-ORIGIN LEVEL: 0 DIFFERENT FILL-ORIGIN LEVEL: 0
LLC AVERAGE MISS LATENCY: 140.693 cycles
LLC AVERAGE MISS LATENCY LOAD: 185.353 cycles
LLC AVERAGE MISS LATENCY PREFETCH: 229.695 cycles
LLC AVERAGE MSHR OCCUPANCY: 3.08875
LLC MSHR FULL: 0
LLC RQ	ACCESS:    4079010	FORWARD:          0	MERGED:          0	TO_CACHE:    4079010
LLC WQ	ACCESS:    3499976	FORWARD:          0	MERGED:          0	TO_CACHE:    3499976
LLC PQ	ACCESS:    2030265	FORWARD:          0	MERGED:          0	TO_CACHE:    2030265

LLC Dense regions hint to LLC: 0

RAW hits: 1389298
Loads Generated: 64167520
Loads sent to L1D: 62778222
Stores Generated: 57343183
Stores sent to L1D: 57343188
Major fault: 0 Minor fault: 60491
Allocated PAGES: 60491
Total Load insts: 78207692
Total Non-spec loads: 10427621
Percentage of speculative loads: 86.6668

LeapFrogging counter: 2619237
Commit hits: 26394443 miss: 27688544
Commit hit %: 48.8036 miss %: 51.1964
Commits not translated: 0
Loads retired: 3942596
Stores retired: 57343188
Cache fills: 3942596
L1D response latency: 199.169 cycles
Load retirement latency: 386.723 cycles
OOO test counter: 0
Discarded buffer inserts: 26394443 hits: 7256 hit %: 0.0274906
Filter prediction accuracy: 99.4664
Speculative prefetch buffer size: 0
CPU 0 L1D PC-based stride prefetcher final stats
Degree: 3

DRAM Statistics
 CHANNEL 0
 RQ ROW_BUFFER_HIT:    2027037  ROW_BUFFER_MISS:    4068182
 DBUS_CONGESTED:       2302
 WQ ROW_BUFFER_HIT:     695831  ROW_BUFFER_MISS:    2800441  FULL:       3602

 AVG_CONGESTED_CYCLE: 5
 All warmup complete: 2
Channel 0 Bank busy for read cycles: 0
Channel 0 Bank busy for write cycles: 0
Channel 0
Rank 0
0banks busy for read cycles: 88293463
0banks busy for write cycles: 284559
1banks busy for read cycles: 158099186
1banks busy for write cycles: 46209326
2banks busy for read cycles: 48414555
2banks busy for write cycles: 32703905
3banks busy for read cycles: 23625262
3banks busy for write cycles: 23317956
4banks busy for read cycles: 24089452
4banks busy for write cycles: 16400225
5banks busy for read cycles: 18087369
5banks busy for write cycles: 10081030
6banks busy for read cycles: 12580198
6banks busy for write cycles: 6035464
7banks busy for read cycles: 9613306
7banks busy for write cycles: 8535461
8banks busy for read cycles: 9088083
8banks busy for write cycles: 44384506

CPU 0 Branch Prediction Accuracy: 99.1376% MPKI: 0.85602 Average ROB Occupancy at Mispredict: 247.609
Branch types
NOT_BRANCH: 180147862 90.0739%
BRANCH_DIRECT_JUMP: 976614 0.488307%
BRANCH_INDIRECT: 0 0%
BRANCH_CONDITIONAL: 18875250 9.43762%
BRANCH_DIRECT_CALL: 94 4.7e-05%
BRANCH_INDIRECT_CALL: 0 0%
BRANCH_RETURN: 94 4.7e-05%
BRANCH_OTHER: 0 0%

DRAM PAGES: 1048576
Allocated PAGES: 60491
