
*** ChampSim Multicore Out-of-Order Simulator ***

Warmup Instructions: 50000000
Simulation Instructions: 200000000
Number of CPUs: 1
LLC sets: 2048
LLC ways: 16
L0D sets: 16
L0D ways: 2
ROB size: 352
LQ size: 128
SQ size: 72
Secure Berti: OFF
Berti: OFF
Berti Fill: OFF
On commit prefetching: OFF
Hit-based filter: ON
Time-guarding: ON
Free-slotting: ON
Leap-frogging: ON
Train prefetcher on L0D bypass: OFF
No translation penalty for prefetchers: OFF
Prefetch to L0D only: OFF
Prefetch to L1D only: OFF
Clean evictions: ON
Commit loads: ON
Commit write: ON
Fill commit loads to L2C, LLC: ON
DRAM IO FREQUENCY: 6400
ROB SIZE: 352
Off-chip DRAM Size: 4096 MB Channels: 1 Width: 64-bit Data Rate: 6400 MT/s
CPU 0 runs /home/sumon/secure_berti/GhostMinion/../../traces/spec/605.mcf_s-1644B.champsimtrace.xz
.xz
BTB has LRU replacement policy
ITLB has LRU replacement policy
DTLB has LRU replacement policy
STLB has LRU replacement policy
L1I has LRU replacement policy
L0D has LRU replacement policy
CPU 0 L1D IP-based stride prefetcher
L1D has LRU replacement policy
L2C has LRU replacement policy
LLC has LRU replacement policy
Heartbeat CPU 0 instructions: 10000003 cycles: 14316611 heartbeat IPC: 0.69849 cumulative IPC: 0.69849 (Simulation time: 0 hr 1 min 9 sec) 
Heartbeat CPU 0 instructions: 20000001 cycles: 28623174 heartbeat IPC: 0.69898 cumulative IPC: 0.698735 (Simulation time: 0 hr 2 min 19 sec) 
Heartbeat CPU 0 instructions: 30000002 cycles: 42934992 heartbeat IPC: 0.698723 cumulative IPC: 0.698731 (Simulation time: 0 hr 3 min 29 sec) 
Heartbeat CPU 0 instructions: 40000001 cycles: 57238134 heartbeat IPC: 0.699147 cumulative IPC: 0.698835 (Simulation time: 0 hr 4 min 39 sec) 
Heartbeat CPU 0 instructions: 50000000 cycles: 71546925 heartbeat IPC: 0.698871 cumulative IPC: 0.698842 (Simulation time: 0 hr 5 min 49 sec) 

Warmup complete CPU 0 instructions: 50000004 cycles: 71546926 (Simulation time: 0 hr 5 min 49 sec) 

Heartbeat CPU 0 instructions: 60000001 cycles: 140844279 heartbeat IPC: 0.144306 cumulative IPC: 0.144306 (Simulation time: 0 hr 7 min 44 sec) 
Heartbeat CPU 0 instructions: 70000003 cycles: 210295227 heartbeat IPC: 0.143987 cumulative IPC: 0.144146 (Simulation time: 0 hr 9 min 41 sec) 
Heartbeat CPU 0 instructions: 80000000 cycles: 280261093 heartbeat IPC: 0.142927 cumulative IPC: 0.143737 (Simulation time: 0 hr 11 min 41 sec) 
Heartbeat CPU 0 instructions: 90000000 cycles: 350102274 heartbeat IPC: 0.143182 cumulative IPC: 0.143598 (Simulation time: 0 hr 13 min 32 sec) 
Heartbeat CPU 0 instructions: 100000003 cycles: 421065199 heartbeat IPC: 0.140919 cumulative IPC: 0.143054 (Simulation time: 0 hr 15 min 16 sec) 
Heartbeat CPU 0 instructions: 110000000 cycles: 492148376 heartbeat IPC: 0.14068 cumulative IPC: 0.142653 (Simulation time: 0 hr 16 min 52 sec) 
Heartbeat CPU 0 instructions: 120000001 cycles: 563440695 heartbeat IPC: 0.140268 cumulative IPC: 0.142307 (Simulation time: 0 hr 18 min 25 sec) 
Heartbeat CPU 0 instructions: 130000001 cycles: 634252126 heartbeat IPC: 0.14122 cumulative IPC: 0.14217 (Simulation time: 0 hr 19 min 56 sec) 
Heartbeat CPU 0 instructions: 140000003 cycles: 703518732 heartbeat IPC: 0.14437 cumulative IPC: 0.142411 (Simulation time: 0 hr 21 min 25 sec) 
Heartbeat CPU 0 instructions: 150000002 cycles: 770092070 heartbeat IPC: 0.15021 cumulative IPC: 0.143155 (Simulation time: 0 hr 22 min 50 sec) 
Heartbeat CPU 0 instructions: 160000002 cycles: 835104097 heartbeat IPC: 0.153818 cumulative IPC: 0.144063 (Simulation time: 0 hr 24 min 15 sec) 
Heartbeat CPU 0 instructions: 170000000 cycles: 902054606 heartbeat IPC: 0.149364 cumulative IPC: 0.14449 (Simulation time: 0 hr 25 min 39 sec) 
Heartbeat CPU 0 instructions: 180000000 cycles: 969284747 heartbeat IPC: 0.148743 cumulative IPC: 0.144808 (Simulation time: 0 hr 27 min 1 sec) 
Heartbeat CPU 0 instructions: 190000000 cycles: 1036147321 heartbeat IPC: 0.14956 cumulative IPC: 0.145138 (Simulation time: 0 hr 28 min 24 sec) 
Heartbeat CPU 0 instructions: 200000001 cycles: 1104160597 heartbeat IPC: 0.14703 cumulative IPC: 0.145262 (Simulation time: 0 hr 29 min 47 sec) 
Heartbeat CPU 0 instructions: 210000003 cycles: 1172160105 heartbeat IPC: 0.14706 cumulative IPC: 0.145374 (Simulation time: 0 hr 31 min 10 sec) 
Heartbeat CPU 0 instructions: 220000000 cycles: 1239777018 heartbeat IPC: 0.147892 cumulative IPC: 0.145519 (Simulation time: 0 hr 32 min 33 sec) 
Heartbeat CPU 0 instructions: 230000001 cycles: 1307485420 heartbeat IPC: 0.147692 cumulative IPC: 0.145638 (Simulation time: 0 hr 33 min 57 sec) 
Heartbeat CPU 0 instructions: 240000000 cycles: 1375584255 heartbeat IPC: 0.146845 cumulative IPC: 0.145701 (Simulation time: 0 hr 35 min 20 sec) 
Heartbeat CPU 0 instructions: 250000000 cycles: 1443780482 heartbeat IPC: 0.146636 cumulative IPC: 0.145748 (Simulation time: 0 hr 36 min 43 sec) 
Finished CPU 0 instructions: 200000000 cycles: 1372233558 cumulative IPC: 0.145748 (Simulation time: 0 hr 36 min 43 sec) 
 Instruction ID: 250000247

ChampSim completed all CPUs

Region of Interest Statistics

CPU 0 cumulative IPC: 0.145748 instructions: 200000000 cycles: 1372233558
ITLB SPEC fills:          0  NON-SPEC fills:          0
ITLB Test counter :          0
ITLB Leapfrog:          0
ITLB MSHR merge:          0
ITLB TOTAL     ACCESS:   33764007  HIT:   33764007  MISS:          0  HIT %:        100  MISS %:          0   MPKI: 0
ITLB LOAD TRANSLATION NON_SPEC    ACCESS:   33764007  HIT:   33764007  MISS:          0  HIT %:        100  MISS %:          0   MPKI: 0
ITLB PREFETCH  REQUESTED:          0  ISSUED:          0  USEFUL:          0  USELESS:          0
ITLB USEFUL LOAD PREFETCHES:          0 PREFETCH ISSUED TO LOWER LEVEL:          0  ACCURACY: -nan
ITLB TIMELY PREFETCHES:          0 LATE PREFETCHES: 0 DROPPED PREFETCHES: 0
ITLB COMMIT LATE PREFETCHES: 0 MISSED OPPORTUNITY: 0 LATE IN PQ: 0 UNCOVERED: 0
ITLB COMMIT LATE MSHR PREFETCHES: 0
ITLB MPKI TOTAL: 0 MSHR LATE: 0 PQ LATE: 0 COMMIT LATE: 0 MISSED OPPORTUNITY: 0 UNCOVERED: 0
ITLB PREFETCHES SAME FILL-ORIGIN LEVEL: 0 DIFFERENT FILL-ORIGIN LEVEL: 0
ITLB AVERAGE MISS LATENCY: -nan cycles
ITLB AVERAGE MISS LATENCY LOAD: -nan cycles
ITLB AVERAGE MISS LATENCY PREFETCH: -nan cycles
ITLB AVERAGE MSHR OCCUPANCY: 0
ITLB MSHR FULL: 0
ITLB RQ	ACCESS:   33766135	FORWARD:          0	MERGED:       2129	TO_CACHE:   33764006

DTLB SPEC fills:          0  NON-SPEC fills:          0
DTLB Test counter :          0
DTLB Leapfrog:          0
DTLB MSHR merge:          0
DTLB TOTAL     ACCESS:   80288862  HIT:   74654708  MISS:    5634154  HIT %:    92.9826  MISS %:    7.01735   MPKI: 28.1708
DTLB LOAD TRANSLATION NON_SPEC    ACCESS:   80288862  HIT:   74654708  MISS:    5634154  HIT %:    92.9826  MISS %:    7.01735   MPKI: 28.1708
DTLB PREFETCH  REQUESTED:          0  ISSUED:          0  USEFUL:          0  USELESS:          0
DTLB USEFUL LOAD PREFETCHES:          0 PREFETCH ISSUED TO LOWER LEVEL:          0  ACCURACY: -nan
DTLB TIMELY PREFETCHES:          0 LATE PREFETCHES: 0 DROPPED PREFETCHES: 0
DTLB COMMIT LATE PREFETCHES: 0 MISSED OPPORTUNITY: 0 LATE IN PQ: 0 UNCOVERED: 0
DTLB COMMIT LATE MSHR PREFETCHES: 0
DTLB MPKI TOTAL: 0 MSHR LATE: 0 PQ LATE: 0 COMMIT LATE: 0 MISSED OPPORTUNITY: 0 UNCOVERED: 0
DTLB PREFETCHES SAME FILL-ORIGIN LEVEL: 0 DIFFERENT FILL-ORIGIN LEVEL: 0
DTLB AVERAGE MISS LATENCY: 859.524 cycles
DTLB AVERAGE MISS LATENCY LOAD: -nan cycles
DTLB AVERAGE MISS LATENCY PREFETCH: -nan cycles
DTLB AVERAGE MSHR OCCUPANCY: 3.06007
DTLB MSHR FULL: 7.56891e-05
DTLB RQ	ACCESS:  127476599	FORWARD:          0	MERGED:   25763325	TO_CACHE:  101713274

STLB SPEC fills:          0  NON-SPEC fills:          0
STLB Test counter :          0
STLB Leapfrog:          0
STLB MSHR merge:          0
STLB TOTAL     ACCESS:   11621879  HIT:    6795697  MISS:    4826182  HIT %:    58.4733  MISS %:    41.5267   MPKI: 24.1309
STLB LOAD TRANSLATION NON_SPEC    ACCESS:    5634154  HIT:     807977  MISS:    4826177  HIT %:    14.3407  MISS %:    85.6593   MPKI: 24.1309
STLB TRANSLATION FROM L1D PREFETCHER NON_SPEC    ACCESS:    5987725  HIT:    5987720  MISS:          5  HIT %:    99.9999  MISS %: 8.35042e-05   MPKI: 2.5e-05
STLB PREFETCH  REQUESTED:          0  ISSUED:          0  USEFUL:          0  USELESS:          5
STLB USEFUL LOAD PREFETCHES:          0 PREFETCH ISSUED TO LOWER LEVEL:          0  ACCURACY: -nan
STLB TIMELY PREFETCHES:          0 LATE PREFETCHES: 0 DROPPED PREFETCHES: 0
STLB COMMIT LATE PREFETCHES: 0 MISSED OPPORTUNITY: 0 LATE IN PQ: 0 UNCOVERED: 0
STLB COMMIT LATE MSHR PREFETCHES: 0
STLB MPKI TOTAL: 0 MSHR LATE: 0 PQ LATE: 0 COMMIT LATE: 0 MISSED OPPORTUNITY: 0 UNCOVERED: 0
STLB PREFETCHES SAME FILL-ORIGIN LEVEL: 0 DIFFERENT FILL-ORIGIN LEVEL: 0
STLB AVERAGE MISS LATENCY: 992.873 cycles
STLB AVERAGE MISS LATENCY LOAD: -nan cycles
STLB AVERAGE MISS LATENCY PREFETCH: -nan cycles
STLB AVERAGE MSHR OCCUPANCY: 3.0022
STLB MSHR FULL: 0
STLB RQ	ACCESS:   23943499	FORWARD:          0	MERGED:   12321617	TO_CACHE:   11621882

STLB Hit, L1D data hit: 0
STLB Hit, L2C data hit: 0
STLB Hit, LLC data hit: 0
STLB Hit, LLC data miss: 0
STLB STLB hints to L2: 0
L0D SPEC fills:   22255089  NON-SPEC fills:          0
L0D TimeGuard Request with older TS:    2612300 Restricted eviction:     443087 read:    4959915
L0D Test counter :          0
L0D Leapfrog:          0
L0D MSHR merge:    2058511
L0D TOTAL     ACCESS:   55444988  HIT:   16251206  MISS:   39193782  HIT %:    29.3105  MISS %:    70.6895   MPKI: 195.969
L0D LOAD      TOTAL       ACCESS:   55444988  HIT:   16251206  MISS:   39193782  HIT %:    29.3105  MISS %:    70.6895   MPKI: 195.969
L0D LOAD      NON_SPEC    ACCESS:   20865096  HIT:    4368888  MISS:   16496208  HIT %:    20.9387  MISS %:    79.0613   MPKI: 82.481
L0D LOAD      SPEC        ACCESS:   34579892  HIT:   11882318  MISS:   22697574  HIT %:    34.3619  MISS %:    65.6381   MPKI: 113.488
L0D PREFETCH  REQUESTED:          0  ISSUED:          0  USEFUL:          0  USELESS:          0
L0D USEFUL LOAD PREFETCHES:          0 PREFETCH ISSUED TO LOWER LEVEL:          0  ACCURACY: -nan
L0D TIMELY PREFETCHES:          0 LATE PREFETCHES: 0 DROPPED PREFETCHES: 0
L0D COMMIT LATE PREFETCHES: 0 MISSED OPPORTUNITY: 0 LATE IN PQ: 0 UNCOVERED: 0
L0D COMMIT LATE MSHR PREFETCHES: 0
L0D MPKI TOTAL: 206.261 MSHR LATE: 0 PQ LATE: 0 COMMIT LATE: 0 MISSED OPPORTUNITY: 0 UNCOVERED: 0
L0D PREFETCHES SAME FILL-ORIGIN LEVEL: 0 DIFFERENT FILL-ORIGIN LEVEL: 0
L0D AVERAGE MISS LATENCY: 24.7038 cycles
L0D AVERAGE MISS LATENCY LOAD: 24.7038 cycles
L0D AVERAGE MISS LATENCY PREFETCH: -nan cycles
L0D AVERAGE MSHR OCCUPANCY: 1.12308
L0D MSHR FULL: 1.21732e-07
L0D RQ	ACCESS:   71290289	FORWARD:          0	MERGED:   13786792	TO_CACHE:   57503497
L0D WQ	ACCESS:   69973102	FORWARD:          0	MERGED:          0	TO_CACHE:   69973102

L1D SPEC fills:          0  NON-SPEC fills:     164112
L1D Test counter :          0
L1D Leapfrog:          0
L1D MSHR merge:     978561
L1D TOTAL     ACCESS:   94747941  HIT:   70433252  MISS:   24314689  HIT %:    74.3375  MISS %:    25.6625   MPKI: 121.573
L1D LOAD      TOTAL       ACCESS:   39192174  HIT:   32936631  MISS:    6255543  HIT %:    84.0388  MISS %:    15.9612   MPKI: 31.2777
L1D LOAD      NON_SPEC    ACCESS:   16495413  HIT:   16331301  MISS:     164112  HIT %:    99.0051  MISS %:   0.994895   MPKI: 0.82056
L1D LOAD      SPEC        ACCESS:   22696761  HIT:   16605330  MISS:    6091431  HIT %:    73.1617  MISS %:    26.8383   MPKI: 30.4572
L1D RFO       NON_SPEC    ACCESS:   35495908  HIT:   26747520  MISS:    8748388  HIT %:    75.3538  MISS %:    24.6462   MPKI: 43.7419
L1D PREFETCH  NON_SPEC    ACCESS:   12687901  HIT:    8585201  MISS:    4102700  HIT %:    67.6645  MISS %:    32.3355   MPKI: 20.5135
L1D COMMIT LOAD NON_SPEC    ACCESS:    1362295  HIT:    1187762  MISS:     174533  HIT %:    87.1883  MISS %:    12.8117   MPKI: 0.872665
L1D COMMIT WRITE NON_SPEC    ACCESS:    6009663  HIT:     976138  MISS:    5033525  HIT %:    16.2428  MISS %:    83.7572   MPKI: 25.1676
L1D PREFETCH  REQUESTED:   19899097  ISSUED:   19899097  USEFUL:    3882136  USELESS:     220565
L1D USEFUL LOAD PREFETCHES:    3882136 PREFETCH ISSUED TO LOWER LEVEL:    5496008  ACCURACY: 70.6356
L1D TIMELY PREFETCHES:    3882136 LATE PREFETCHES: 978166 DROPPED PREFETCHES: 0
L1D COMMIT LATE PREFETCHES: 0 MISSED OPPORTUNITY: 0 LATE IN PQ: 0 UNCOVERED: 0
L1D COMMIT LATE MSHR PREFETCHES: 0
L1D MPKI TOTAL: 31.2858 MSHR LATE: 4.89083 PQ LATE: 0 COMMIT LATE: 0 MISSED OPPORTUNITY: 0 UNCOVERED: 0
L1D PREFETCHES SAME FILL-ORIGIN LEVEL: 5080866 DIFFERENT FILL-ORIGIN LEVEL: 415142
L1D AVERAGE MISS LATENCY: 187.374 cycles
L1D AVERAGE MISS LATENCY LOAD: 123.76 cycles
L1D AVERAGE MISS LATENCY PREFETCH: 262.789 cycles
L1D AVERAGE MSHR OCCUPANCY: 4.13233
L1D MSHR FULL: 0.000552313
L1D RQ	ACCESS:   41619300	FORWARD:          0	MERGED:    1061515	TO_CACHE:   40557304
L1D WQ	ACCESS:   75982742	FORWARD:        481	MERGED:    3683092	TO_CACHE:   72299650
L1D PQ	ACCESS:   19899097	FORWARD:          0	MERGED:    1589755	TO_CACHE:   18309342

L1D UNIQUE REGIONS ACCESSED: 0
L1D REGIONS CONFLICTS: 0
L1D Cross Page Prefetch Requests: 0
L1D Same Page Prefetch Requests: 25926985
L1D ROI Sum of L1D PQ occupancy: 242867943
L1D PREFETCHES PUSHED FROM L2C: 0
L1I SPEC fills:          0  NON-SPEC fills:          0
L1I Test counter :          0
L1I Leapfrog:          0
L1I MSHR merge:          0
L1I TOTAL     ACCESS:   33766136  HIT:   33766136  MISS:          0  HIT %:        100  MISS %:          0   MPKI: 0
L1I LOAD      TOTAL       ACCESS:   33766136  HIT:   33766136  MISS:          0  HIT %:        100  MISS %:          0   MPKI: 0
L1I LOAD      NON_SPEC    ACCESS:   33766136  HIT:   33766136  MISS:          0  HIT %:        100  MISS %:          0   MPKI: 0
L1I PREFETCH  REQUESTED:          0  ISSUED:          0  USEFUL:          0  USELESS:          0
L1I USEFUL LOAD PREFETCHES:          0 PREFETCH ISSUED TO LOWER LEVEL:          0  ACCURACY: -nan
L1I TIMELY PREFETCHES:          0 LATE PREFETCHES: 0 DROPPED PREFETCHES: 0
L1I COMMIT LATE PREFETCHES: 0 MISSED OPPORTUNITY: 0 LATE IN PQ: 0 UNCOVERED: 0
L1I COMMIT LATE MSHR PREFETCHES: 0
L1I MPKI TOTAL: 0 MSHR LATE: 0 PQ LATE: 0 COMMIT LATE: 0 MISSED OPPORTUNITY: 0 UNCOVERED: 0
L1I PREFETCHES SAME FILL-ORIGIN LEVEL: 0 DIFFERENT FILL-ORIGIN LEVEL: 0
L1I AVERAGE MISS LATENCY: -nan cycles
L1I AVERAGE MISS LATENCY LOAD: -nan cycles
L1I AVERAGE MISS LATENCY PREFETCH: -nan cycles
L1I AVERAGE MSHR OCCUPANCY: 0
L1I MSHR FULL: 0
L1I RQ	ACCESS:   57439450	FORWARD:          0	MERGED:   23673315	TO_CACHE:   33766135

BTB SPEC fills:          0  NON-SPEC fills:          0
BTB Test counter :          0
BTB Leapfrog:          0
BTB MSHR merge:          0
BTB TOTAL     ACCESS:   20480052  HIT:   20480047  MISS:          5  HIT %:        100  MISS %: 2.4414e-05   MPKI: 2.5e-05
BTB BRANCH_DIRECT_JUMP	ACCESS:    2986818  HIT:    2986817  MISS:          1
BTB BRANCH_INDIRECT	ACCESS:          0  HIT:          0  MISS:          0
BTB BRANCH_CONDITIONAL	ACCESS:    8746602  HIT:    8746600  MISS:          2
BTB BRANCH_DIRECT_CALL	ACCESS:    4373316  HIT:    4373315  MISS:          1
BTB BRANCH_INDIRECT_CALL	ACCESS:          0  HIT:          0  MISS:          0
BTB BRANCH_RETURN	ACCESS:    4373316  HIT:    4373315  MISS:          1
BTB BRANCH_OTHER ACCESS:          0  HIT:          0  MISS:          0

L2C SPEC fills:          0  NON-SPEC fills:     122147
L2C Test counter :          0
L2C Leapfrog:          0
L2C MSHR merge:      26647
L2C TOTAL     ACCESS:   60914718  HIT:   35846622  MISS:   25068096  HIT %:    58.8472  MISS %:    41.1528   MPKI: 125.34
L2C LOAD      TOTAL       ACCESS:    5278522  HIT:    1269651  MISS:    4008871  HIT %:    24.0532  MISS %:    75.9468   MPKI: 20.0444
L2C LOAD      NON_SPEC    ACCESS:     163572  HIT:      41425  MISS:     122147  HIT %:    25.3252  MISS %:    74.6748   MPKI: 0.610735
L2C LOAD      SPEC        ACCESS:    5114950  HIT:    1228226  MISS:    3886724  HIT %:    24.0125  MISS %:    75.9875   MPKI: 19.4336
L2C RFO       NON_SPEC    ACCESS:    8748336  HIT:       3184  MISS:    8745152  HIT %:  0.0363955  MISS %:    99.9636   MPKI: 43.7258
L2C PREFETCH  NON_SPEC    ACCESS:    5340391  HIT:     680143  MISS:    4660248  HIT %:    12.7358  MISS %:    87.2642   MPKI: 23.3012
L2C WRITEBACK NON_SPEC    ACCESS:   12194067  HIT:   12193698  MISS:        369  HIT %:     99.997  MISS %: 0.00302606   MPKI: 0.001845
L2C CLEAN_EVICTION NON_SPEC    ACCESS:    5049321  HIT:    1640123  MISS:    3409198  HIT %:    32.4821  MISS %:    67.5179   MPKI: 17.046
L2C COMMIT LOAD NON_SPEC    ACCESS:     173320  HIT:      54333  MISS:     118987  HIT %:    31.3484  MISS %:    68.6516   MPKI: 0.594935
L2C LOAD TRANSLATION NON_SPEC    ACCESS:   24130736  HIT:   20005469  MISS:    4125267  HIT %:    82.9045  MISS %:    17.0955   MPKI: 20.6263
L2C TRANSLATION FROM L1D PREFETCHER NON_SPEC    ACCESS:         25  HIT:         21  MISS:          4  HIT %:         84  MISS %:         16   MPKI: 2e-05
L2C PREFETCH  REQUESTED:          0  ISSUED:          0  USEFUL:     195962  USELESS:    4464541
L2C USEFUL LOAD PREFETCHES:     195962 PREFETCH ISSUED TO LOWER LEVEL:    4686947  ACCURACY: 4.18102
L2C TIMELY PREFETCHES:     195962 LATE PREFETCHES: 26699 DROPPED PREFETCHES: 0
L2C COMMIT LATE PREFETCHES: 0 MISSED OPPORTUNITY: 0 LATE IN PQ: 0 UNCOVERED: 0
L2C COMMIT LATE MSHR PREFETCHES: 0
L2C MPKI TOTAL: 20.0444 MSHR LATE: 0.133495 PQ LATE: 0 COMMIT LATE: 0 MISSED OPPORTUNITY: 0 UNCOVERED: 0
L2C PREFETCHES SAME FILL-ORIGIN LEVEL: 292686 DIFFERENT FILL-ORIGIN LEVEL: 0
L2C AVERAGE MISS LATENCY: 222.791 cycles
L2C AVERAGE MISS LATENCY LOAD: 133.156 cycles
L2C AVERAGE MISS LATENCY PREFETCH: 305.749 cycles
L2C AVERAGE MSHR OCCUPANCY: 3.18198
L2C MSHR FULL: 0
L2C RQ	ACCESS:   38331062	FORWARD:          0	MERGED:          0	TO_CACHE:   38330942
L2C WQ	ACCESS:   17243412	FORWARD:        120	MERGED:         24	TO_CACHE:   17243388
L2C PQ	ACCESS:    5496008	FORWARD:          0	MERGED:          3	TO_CACHE:    5496005

L2C Instructions Evicting Data 0
L2C Translations Evicting Data 3319557
L2C Data Evicting Data 10986262
L2C Instructions Evicting Instructions 0
L2C Translations Evicting Instructions 0
L2C Data Evicting Instructions 0
L2C Instructions Evicting Translations 0
L2C Translations Evicting Translations 805714
L2C Data Evicting Translations 2660272
L2C Dense regions hint from L2: 0
PSCL5 SPEC fills:          0  NON-SPEC fills:          0
PSCL5 Test counter :          0
PSCL5 Leapfrog:          0
PSCL5 MSHR merge:          0
PSCL5 TOTAL     ACCESS:          0  HIT:          0  MISS:          0  HIT %:       -nan  MISS %:       -nan   MPKI: 0
PSCL5 PREFETCH  REQUESTED:          0  ISSUED:          0  USEFUL:          0  USELESS:          0
PSCL5 USEFUL LOAD PREFETCHES:          0 PREFETCH ISSUED TO LOWER LEVEL:          0  ACCURACY: -nan
PSCL5 TIMELY PREFETCHES:          0 LATE PREFETCHES: 0 DROPPED PREFETCHES: 0
PSCL5 COMMIT LATE PREFETCHES: 0 MISSED OPPORTUNITY: 0 LATE IN PQ: 0 UNCOVERED: 0
PSCL5 COMMIT LATE MSHR PREFETCHES: 0
PSCL5 MPKI TOTAL: 0 MSHR LATE: 0 PQ LATE: 0 COMMIT LATE: 0 MISSED OPPORTUNITY: 0 UNCOVERED: 0
PSCL5 PREFETCHES SAME FILL-ORIGIN LEVEL: 0 DIFFERENT FILL-ORIGIN LEVEL: 0

PSCL4 SPEC fills:          0  NON-SPEC fills:          0
PSCL4 Test counter :          0
PSCL4 Leapfrog:          0
PSCL4 MSHR merge:          0
PSCL4 TOTAL     ACCESS:          0  HIT:          0  MISS:          0  HIT %:       -nan  MISS %:       -nan   MPKI: 0
PSCL4 PREFETCH  REQUESTED:          0  ISSUED:          0  USEFUL:          0  USELESS:          0
PSCL4 USEFUL LOAD PREFETCHES:          0 PREFETCH ISSUED TO LOWER LEVEL:          0  ACCURACY: -nan
PSCL4 TIMELY PREFETCHES:          0 LATE PREFETCHES: 0 DROPPED PREFETCHES: 0
PSCL4 COMMIT LATE PREFETCHES: 0 MISSED OPPORTUNITY: 0 LATE IN PQ: 0 UNCOVERED: 0
PSCL4 COMMIT LATE MSHR PREFETCHES: 0
PSCL4 MPKI TOTAL: 0 MSHR LATE: 0 PQ LATE: 0 COMMIT LATE: 0 MISSED OPPORTUNITY: 0 UNCOVERED: 0
PSCL4 PREFETCHES SAME FILL-ORIGIN LEVEL: 0 DIFFERENT FILL-ORIGIN LEVEL: 0

PSCL3 SPEC fills:          0  NON-SPEC fills:          0
PSCL3 Test counter :          0
PSCL3 Leapfrog:          0
PSCL3 MSHR merge:          0
PSCL3 TOTAL     ACCESS:          0  HIT:          0  MISS:          0  HIT %:       -nan  MISS %:       -nan   MPKI: 0
PSCL3 PREFETCH  REQUESTED:          0  ISSUED:          0  USEFUL:          0  USELESS:          0
PSCL3 USEFUL LOAD PREFETCHES:          0 PREFETCH ISSUED TO LOWER LEVEL:          0  ACCURACY: -nan
PSCL3 TIMELY PREFETCHES:          0 LATE PREFETCHES: 0 DROPPED PREFETCHES: 0
PSCL3 COMMIT LATE PREFETCHES: 0 MISSED OPPORTUNITY: 0 LATE IN PQ: 0 UNCOVERED: 0
PSCL3 COMMIT LATE MSHR PREFETCHES: 0
PSCL3 MPKI TOTAL: 0 MSHR LATE: 0 PQ LATE: 0 COMMIT LATE: 0 MISSED OPPORTUNITY: 0 UNCOVERED: 0
PSCL3 PREFETCHES SAME FILL-ORIGIN LEVEL: 0 DIFFERENT FILL-ORIGIN LEVEL: 0

PSCL2 SPEC fills:          0  NON-SPEC fills:          0
PSCL2 Test counter :          0
PSCL2 Leapfrog:          0
PSCL2 MSHR merge:          0
PSCL2 TOTAL     ACCESS:          0  HIT:          0  MISS:          0  HIT %:       -nan  MISS %:       -nan   MPKI: 0
PSCL2 PREFETCH  REQUESTED:          0  ISSUED:          0  USEFUL:          0  USELESS:          0
PSCL2 USEFUL LOAD PREFETCHES:          0 PREFETCH ISSUED TO LOWER LEVEL:          0  ACCURACY: -nan
PSCL2 TIMELY PREFETCHES:          0 LATE PREFETCHES: 0 DROPPED PREFETCHES: 0
PSCL2 COMMIT LATE PREFETCHES: 0 MISSED OPPORTUNITY: 0 LATE IN PQ: 0 UNCOVERED: 0
PSCL2 COMMIT LATE MSHR PREFETCHES: 0
PSCL2 MPKI TOTAL: 0 MSHR LATE: 0 PQ LATE: 0 COMMIT LATE: 0 MISSED OPPORTUNITY: 0 UNCOVERED: 0
PSCL2 PREFETCHES SAME FILL-ORIGIN LEVEL: 0 DIFFERENT FILL-ORIGIN LEVEL: 0

LLC SPEC fills:          0  NON-SPEC fills:      33868
LLC Test counter :          0
LLC Leapfrog:          0
LLC MSHR merge:          0
LLC TOTAL     ACCESS:   38482197  HIT:   18763506  MISS:   19718691  HIT %:    48.7589  MISS %:    51.2411   MPKI: 98.5935
LLC LOAD      TOTAL       ACCESS:    3982189  HIT:    2294583  MISS:    1687606  HIT %:    57.6211  MISS %:    42.3789   MPKI: 8.43803
LLC LOAD      NON_SPEC    ACCESS:     122136  HIT:      88268  MISS:      33868  HIT %:    72.2703  MISS %:    27.7297   MPKI: 0.16934
LLC LOAD      SPEC        ACCESS:    3860053  HIT:    2206315  MISS:    1653738  HIT %:    57.1576  MISS %:    42.8424   MPKI: 8.26869
LLC RFO       NON_SPEC    ACCESS:    8745152  HIT:      46916  MISS:    8698236  HIT %:    0.53648  MISS %:    99.4635   MPKI: 43.4912
LLC PREFETCH  NON_SPEC    ACCESS:    4686947  HIT:      68900  MISS:    4618047  HIT %:    1.47004  MISS %:      98.53   MPKI: 23.0902
LLC WRITEBACK NON_SPEC    ACCESS:   12127433  HIT:   12127290  MISS:        143  HIT %:    99.9988  MISS %: 0.00117914   MPKI: 0.000715
LLC CLEAN_EVICTION NON_SPEC    ACCESS:    4696273  HIT:    3162043  MISS:    1534230  HIT %:    67.3309  MISS %:    32.6691   MPKI: 7.67115
LLC COMMIT LOAD NON_SPEC    ACCESS:     118932  HIT:      95575  MISS:      23357  HIT %:     80.361  MISS %:     19.639   MPKI: 0.116785
LLC LOAD TRANSLATION NON_SPEC    ACCESS:    4125267  HIT:     968195  MISS:    3157072  HIT %:    23.4699  MISS %:    76.5301   MPKI: 15.7854
LLC TRANSLATION FROM L1D PREFETCHER NON_SPEC    ACCESS:          4  HIT:          4  MISS:          0  HIT %:        100  MISS %:          0   MPKI: 0
LLC PREFETCH  REQUESTED:          0  ISSUED:          0  USEFUL:       9352  USELESS:    4608823
LLC USEFUL LOAD PREFETCHES:       9352 PREFETCH ISSUED TO LOWER LEVEL:    4618047  ACCURACY: 0.20251
LLC TIMELY PREFETCHES:       9352 LATE PREFETCHES: 0 DROPPED PREFETCHES: 0
LLC COMMIT LATE PREFETCHES: 0 MISSED OPPORTUNITY: 0 LATE IN PQ: 0 UNCOVERED: 0
LLC COMMIT LATE MSHR PREFETCHES: 0
LLC MPKI TOTAL: 8.43803 MSHR LATE: 0 PQ LATE: 0 COMMIT LATE: 0 MISSED OPPORTUNITY: 0 UNCOVERED: 0
LLC PREFETCHES SAME FILL-ORIGIN LEVEL: 0 DIFFERENT FILL-ORIGIN LEVEL: 0
LLC AVERAGE MISS LATENCY: 252.173 cycles
LLC AVERAGE MISS LATENCY LOAD: 261.056 cycles
LLC AVERAGE MISS LATENCY PREFETCH: 280.76 cycles
LLC AVERAGE MSHR OCCUPANCY: 2.9968
LLC MSHR FULL: 0
LLC RQ	ACCESS:   16971582	FORWARD:          0	MERGED:          0	TO_CACHE:   16971544
LLC WQ	ACCESS:   16823707	FORWARD:         38	MERGED:          0	TO_CACHE:   16823707
LLC PQ	ACCESS:    4686947	FORWARD:          0	MERGED:          0	TO_CACHE:    4686947

LLC Dense regions hint to LLC: 0

RAW hits: 11802798
Loads Generated: 83093086
Loads sent to L1D: 71290289
Stores Generated: 69973136
Stores sent to L1D: 69973102
Major fault: 0 Minor fault: 318411
Allocated PAGES: 318411
Total Load insts: 90554588
Total Non-spec loads: 30575493
Percentage of speculative loads: 66.2353

LeapFrogging counter: 7320
Commit hits: 19940273 miss: 30439792
Commit hit %: 39.5797 miss %: 60.4203
Commits not translated: 0
Loads retired: 6255539
Stores retired: 69973102
Cache fills: 6255543
L1D response latency: 123.76 cycles
Load retirement latency: 637.831 cycles
OOO test counter: 0
Discarded buffer inserts: 19940273 hits: 4669 hit %: 0.0234149
Filter prediction accuracy: 99.9774
Speculative prefetch buffer size: 0
CPU 0 L1D PC-based stride prefetcher final stats
Degree: 3

DRAM Statistics
 CHANNEL 0
 RQ ROW_BUFFER_HIT:     303691  ROW_BUFFER_MISS:   17878522
 DBUS_CONGESTED:         90
 WQ ROW_BUFFER_HIT:    3710054  ROW_BUFFER_MISS:   11092704  FULL:          0

 AVG_CONGESTED_CYCLE: 6
 All warmup complete: 2
Channel 0 Bank busy for read cycles: 0
Channel 0 Bank busy for write cycles: 0
Channel 0
Rank 0
0banks busy for read cycles: 2383685
0banks busy for write cycles: 12
1banks busy for read cycles: 171985759
1banks busy for write cycles: 2664908
2banks busy for read cycles: 193938918
2banks busy for write cycles: 2673876
3banks busy for read cycles: 247885438
3banks busy for write cycles: 2763777
4banks busy for read cycles: 150996288
4banks busy for write cycles: 5306075
5banks busy for read cycles: 89086680
5banks busy for write cycles: 11063114
6banks busy for read cycles: 48513086
6banks busy for write cycles: 26078483
7banks busy for read cycles: 19616653
7banks busy for write cycles: 92343258
8banks busy for read cycles: 4592203
8banks busy for write cycles: 300341346

CPU 0 Branch Prediction Accuracy: 95.2594% MPKI: 5.89096 Average ROB Occupancy at Mispredict: 136.662
Branch types
NOT_BRANCH: 175146465 87.5732%
BRANCH_DIRECT_JUMP: 2986818 1.49341%
BRANCH_INDIRECT: 0 0%
BRANCH_CONDITIONAL: 13119949 6.55997%
BRANCH_DIRECT_CALL: 4373316 2.18666%
BRANCH_INDIRECT_CALL: 0 0%
BRANCH_RETURN: 4373316 2.18666%
BRANCH_OTHER: 0 0%

DRAM PAGES: 1048576
Allocated PAGES: 318411
