
*** ChampSim Multicore Out-of-Order Simulator ***

Warmup Instructions: 50000000
Simulation Instructions: 200000000
Number of CPUs: 1
LLC sets: 2048
LLC ways: 16
L0D sets: 16
L0D ways: 2
ROB size: 352
LQ size: 128
SQ size: 72
Secure Berti: OFF
Berti: OFF
Berti Fill: OFF
On commit prefetching: OFF
Hit-based filter: ON
Time-guarding: ON
Free-slotting: ON
Leap-frogging: ON
Train prefetcher on L0D bypass: OFF
No translation penalty for prefetchers: OFF
Prefetch to L0D only: OFF
Prefetch to L1D only: OFF
Clean evictions: ON
Commit loads: ON
Commit write: ON
Fill commit loads to L2C, LLC: ON
DRAM IO FREQUENCY: 6400
ROB SIZE: 352
Off-chip DRAM Size: 4096 MB Channels: 1 Width: 64-bit Data Rate: 6400 MT/s
CPU 0 runs /home/sumon/secure_berti/GhostMinion/../../traces/spec/607.cactuBSSN_s-3477B.champsimtrace.xz
.xz
BTB has LRU replacement policy
ITLB has LRU replacement policy
DTLB has LRU replacement policy
STLB has LRU replacement policy
L1I has LRU replacement policy
L0D has LRU replacement policy
CPU 0 L1D IP-based stride prefetcher
L1D has LRU replacement policy
L2C has LRU replacement policy
LLC has LRU replacement policy
Heartbeat CPU 0 instructions: 10000000 cycles: 4516807 heartbeat IPC: 2.21395 cumulative IPC: 2.21395 (Simulation time: 0 hr 0 min 43 sec) 
Heartbeat CPU 0 instructions: 20000001 cycles: 9042159 heartbeat IPC: 2.20977 cumulative IPC: 2.21186 (Simulation time: 0 hr 1 min 28 sec) 
Heartbeat CPU 0 instructions: 30000000 cycles: 13557543 heartbeat IPC: 2.21465 cumulative IPC: 2.21279 (Simulation time: 0 hr 2 min 12 sec) 
Heartbeat CPU 0 instructions: 40000003 cycles: 18071573 heartbeat IPC: 2.21532 cumulative IPC: 2.21342 (Simulation time: 0 hr 2 min 57 sec) 
Heartbeat CPU 0 instructions: 50000002 cycles: 22598102 heartbeat IPC: 2.2092 cumulative IPC: 2.21258 (Simulation time: 0 hr 3 min 42 sec) 

Warmup complete CPU 0 instructions: 50000002 cycles: 22598102 (Simulation time: 0 hr 3 min 42 sec) 

Heartbeat CPU 0 instructions: 60000000 cycles: 40045263 heartbeat IPC: 0.573159 cumulative IPC: 0.573159 (Simulation time: 0 hr 4 min 39 sec) 
Heartbeat CPU 0 instructions: 70000002 cycles: 57443397 heartbeat IPC: 0.574774 cumulative IPC: 0.573966 (Simulation time: 0 hr 5 min 38 sec) 
Heartbeat CPU 0 instructions: 80000003 cycles: 74923843 heartbeat IPC: 0.572068 cumulative IPC: 0.573332 (Simulation time: 0 hr 6 min 37 sec) 
Heartbeat CPU 0 instructions: 90000002 cycles: 92365888 heartbeat IPC: 0.573327 cumulative IPC: 0.573331 (Simulation time: 0 hr 7 min 35 sec) 
Heartbeat CPU 0 instructions: 100000001 cycles: 109738143 heartbeat IPC: 0.57563 cumulative IPC: 0.573789 (Simulation time: 0 hr 8 min 34 sec) 
Heartbeat CPU 0 instructions: 110000000 cycles: 127022222 heartbeat IPC: 0.578567 cumulative IPC: 0.57458 (Simulation time: 0 hr 9 min 33 sec) 
Heartbeat CPU 0 instructions: 120000002 cycles: 144504518 heartbeat IPC: 0.572007 cumulative IPC: 0.574211 (Simulation time: 0 hr 10 min 32 sec) 
Heartbeat CPU 0 instructions: 130000000 cycles: 162120411 heartbeat IPC: 0.567669 cumulative IPC: 0.573385 (Simulation time: 0 hr 11 min 31 sec) 
Heartbeat CPU 0 instructions: 140000000 cycles: 179664493 heartbeat IPC: 0.569993 cumulative IPC: 0.573006 (Simulation time: 0 hr 12 min 30 sec) 
Heartbeat CPU 0 instructions: 150000000 cycles: 197098752 heartbeat IPC: 0.573583 cumulative IPC: 0.573064 (Simulation time: 0 hr 13 min 26 sec) 
Heartbeat CPU 0 instructions: 160000001 cycles: 214856959 heartbeat IPC: 0.56312 cumulative IPC: 0.572145 (Simulation time: 0 hr 14 min 21 sec) 
Heartbeat CPU 0 instructions: 170000000 cycles: 232262258 heartbeat IPC: 0.574538 cumulative IPC: 0.572344 (Simulation time: 0 hr 15 min 13 sec) 
Heartbeat CPU 0 instructions: 180000000 cycles: 249803495 heartbeat IPC: 0.570085 cumulative IPC: 0.572169 (Simulation time: 0 hr 16 min 2 sec) 
Heartbeat CPU 0 instructions: 190000000 cycles: 267191434 heartbeat IPC: 0.575111 cumulative IPC: 0.572379 (Simulation time: 0 hr 16 min 49 sec) 
Heartbeat CPU 0 instructions: 200000000 cycles: 285272920 heartbeat IPC: 0.553052 cumulative IPC: 0.571048 (Simulation time: 0 hr 17 min 37 sec) 
Heartbeat CPU 0 instructions: 210000001 cycles: 302859800 heartbeat IPC: 0.568606 cumulative IPC: 0.570895 (Simulation time: 0 hr 18 min 23 sec) 
Heartbeat CPU 0 instructions: 220000000 cycles: 320247532 heartbeat IPC: 0.575118 cumulative IPC: 0.571142 (Simulation time: 0 hr 19 min 10 sec) 
Heartbeat CPU 0 instructions: 230000000 cycles: 337605264 heartbeat IPC: 0.576112 cumulative IPC: 0.571416 (Simulation time: 0 hr 19 min 57 sec) 
Heartbeat CPU 0 instructions: 240000001 cycles: 355149223 heartbeat IPC: 0.569997 cumulative IPC: 0.571341 (Simulation time: 0 hr 20 min 43 sec) 
Heartbeat CPU 0 instructions: 250000002 cycles: 372647631 heartbeat IPC: 0.571481 cumulative IPC: 0.571348 (Simulation time: 0 hr 21 min 29 sec) 
Finished CPU 0 instructions: 200000000 cycles: 350049529 cumulative IPC: 0.571348 (Simulation time: 0 hr 21 min 29 sec) 
 Instruction ID: 250000026

ChampSim completed all CPUs

Region of Interest Statistics

CPU 0 cumulative IPC: 0.571348 instructions: 200000000 cycles: 350049529
ITLB SPEC fills:          0  NON-SPEC fills:          0
ITLB Test counter :          0
ITLB Leapfrog:          0
ITLB MSHR merge:          0
ITLB TOTAL     ACCESS:   28724190  HIT:   28724190  MISS:          0  HIT %:        100  MISS %:          0   MPKI: 0
ITLB LOAD TRANSLATION NON_SPEC    ACCESS:   28724190  HIT:   28724190  MISS:          0  HIT %:        100  MISS %:          0   MPKI: 0
ITLB PREFETCH  REQUESTED:          0  ISSUED:          0  USEFUL:          0  USELESS:          0
ITLB USEFUL LOAD PREFETCHES:          0 PREFETCH ISSUED TO LOWER LEVEL:          0  ACCURACY: -nan
ITLB TIMELY PREFETCHES:          0 LATE PREFETCHES: 0 DROPPED PREFETCHES: 0
ITLB COMMIT LATE PREFETCHES: 0 MISSED OPPORTUNITY: 0 LATE IN PQ: 0 UNCOVERED: 0
ITLB COMMIT LATE MSHR PREFETCHES: 0
ITLB MPKI TOTAL: 0 MSHR LATE: 0 PQ LATE: 0 COMMIT LATE: 0 MISSED OPPORTUNITY: 0 UNCOVERED: 0
ITLB PREFETCHES SAME FILL-ORIGIN LEVEL: 0 DIFFERENT FILL-ORIGIN LEVEL: 0
ITLB AVERAGE MISS LATENCY: -nan cycles
ITLB AVERAGE MISS LATENCY LOAD: -nan cycles
ITLB AVERAGE MISS LATENCY PREFETCH: -nan cycles
ITLB AVERAGE MSHR OCCUPANCY: 0
ITLB MSHR FULL: 0
ITLB RQ	ACCESS:   34844304	FORWARD:          0	MERGED:    6120114	TO_CACHE:   28724190

DTLB SPEC fills:          0  NON-SPEC fills:          0
DTLB Test counter :          0
DTLB Leapfrog:          0
DTLB MSHR merge:          0
DTLB TOTAL     ACCESS:   61900469  HIT:   54325108  MISS:    7575361  HIT %:     87.762  MISS %:     12.238   MPKI: 37.8768
DTLB LOAD TRANSLATION NON_SPEC    ACCESS:   61900469  HIT:   54325108  MISS:    7575361  HIT %:     87.762  MISS %:     12.238   MPKI: 37.8768
DTLB PREFETCH  REQUESTED:          0  ISSUED:          0  USEFUL:          0  USELESS:          0
DTLB USEFUL LOAD PREFETCHES:          0 PREFETCH ISSUED TO LOWER LEVEL:          0  ACCURACY: -nan
DTLB TIMELY PREFETCHES:          0 LATE PREFETCHES: 0 DROPPED PREFETCHES: 0
DTLB COMMIT LATE PREFETCHES: 0 MISSED OPPORTUNITY: 0 LATE IN PQ: 0 UNCOVERED: 0
DTLB COMMIT LATE MSHR PREFETCHES: 0
DTLB MPKI TOTAL: 0 MSHR LATE: 0 PQ LATE: 0 COMMIT LATE: 0 MISSED OPPORTUNITY: 0 UNCOVERED: 0
DTLB PREFETCHES SAME FILL-ORIGIN LEVEL: 0 DIFFERENT FILL-ORIGIN LEVEL: 0
DTLB AVERAGE MISS LATENCY: 10.047 cycles
DTLB AVERAGE MISS LATENCY LOAD: -nan cycles
DTLB AVERAGE MISS LATENCY PREFETCH: -nan cycles
DTLB AVERAGE MSHR OCCUPANCY: 0.782996
DTLB MSHR FULL: 0.0212597
DTLB RQ	ACCESS:   82889928	FORWARD:          0	MERGED:   20022920	TO_CACHE:   62867008

STLB SPEC fills:          0  NON-SPEC fills:          0
STLB Test counter :          0
STLB Leapfrog:          0
STLB MSHR merge:          0
STLB TOTAL     ACCESS:    7575364  HIT:    7567069  MISS:       8295  HIT %:    99.8905  MISS %:     0.1095   MPKI: 0.041475
STLB LOAD TRANSLATION NON_SPEC    ACCESS:    7575361  HIT:    7567066  MISS:       8295  HIT %:    99.8905  MISS %:     0.1095   MPKI: 0.041475
STLB TRANSLATION FROM L1D PREFETCHER NON_SPEC    ACCESS:          3  HIT:          3  MISS:          0  HIT %:        100  MISS %:          0   MPKI: 0
STLB PREFETCH  REQUESTED:          0  ISSUED:          0  USEFUL:          0  USELESS:          0
STLB USEFUL LOAD PREFETCHES:          0 PREFETCH ISSUED TO LOWER LEVEL:          0  ACCURACY: -nan
STLB TIMELY PREFETCHES:          0 LATE PREFETCHES: 0 DROPPED PREFETCHES: 0
STLB COMMIT LATE PREFETCHES: 0 MISSED OPPORTUNITY: 0 LATE IN PQ: 0 UNCOVERED: 0
STLB COMMIT LATE MSHR PREFETCHES: 0
STLB MPKI TOTAL: 0 MSHR LATE: 0 PQ LATE: 0 COMMIT LATE: 0 MISSED OPPORTUNITY: 0 UNCOVERED: 0
STLB PREFETCHES SAME FILL-ORIGIN LEVEL: 0 DIFFERENT FILL-ORIGIN LEVEL: 0
STLB AVERAGE MISS LATENCY: 636.308 cycles
STLB AVERAGE MISS LATENCY LOAD: -nan cycles
STLB AVERAGE MISS LATENCY PREFETCH: -nan cycles
STLB AVERAGE MSHR OCCUPANCY: 0.00989563
STLB MSHR FULL: 0
STLB RQ	ACCESS:    7575368	FORWARD:          0	MERGED:          4	TO_CACHE:    7575364

STLB Hit, L1D data hit: 0
STLB Hit, L2C data hit: 0
STLB Hit, LLC data hit: 0
STLB Hit, LLC data miss: 0
STLB STLB hints to L2: 0
L0D SPEC fills:   46372913  NON-SPEC fills:          0
L0D TimeGuard Request with older TS:    2884627 Restricted eviction:    2970080 read:    2810620
L0D Test counter :          0
L0D Leapfrog:          0
L0D MSHR merge:    2731468
L0D TOTAL     ACCESS:   64142194  HIT:    8794024  MISS:   55348170  HIT %:    13.7102  MISS %:    86.2898   MPKI: 276.741
L0D LOAD      TOTAL       ACCESS:   64142194  HIT:    8794024  MISS:   55348170  HIT %:    13.7102  MISS %:    86.2898   MPKI: 276.741
L0D LOAD      NON_SPEC    ACCESS:    6355947  HIT:     350235  MISS:    6005712  HIT %:    5.51035  MISS %:    94.4896   MPKI: 30.0286
L0D LOAD      SPEC        ACCESS:   57786247  HIT:    8443789  MISS:   49342458  HIT %:    14.6121  MISS %:    85.3879   MPKI: 246.712
L0D PREFETCH  REQUESTED:          0  ISSUED:          0  USEFUL:          0  USELESS:          0
L0D USEFUL LOAD PREFETCHES:          0 PREFETCH ISSUED TO LOWER LEVEL:          0  ACCURACY: -nan
L0D TIMELY PREFETCHES:          0 LATE PREFETCHES: 0 DROPPED PREFETCHES: 0
L0D COMMIT LATE PREFETCHES: 0 MISSED OPPORTUNITY: 0 LATE IN PQ: 0 UNCOVERED: 0
L0D COMMIT LATE MSHR PREFETCHES: 0
L0D MPKI TOTAL: 290.398 MSHR LATE: 0 PQ LATE: 0 COMMIT LATE: 0 MISSED OPPORTUNITY: 0 UNCOVERED: 0
L0D PREFETCHES SAME FILL-ORIGIN LEVEL: 0 DIFFERENT FILL-ORIGIN LEVEL: 0
L0D AVERAGE MISS LATENCY: 15.4163 cycles
L0D AVERAGE MISS LATENCY LOAD: 15.4163 cycles
L0D AVERAGE MISS LATENCY PREFETCH: -nan cycles
L0D AVERAGE MSHR OCCUPANCY: 5.33366
L0D MSHR FULL: 0.453598
L0D RQ	ACCESS:   77325656	FORWARD:          0	MERGED:   10452005	TO_CACHE:   66873651
L0D WQ	ACCESS:   16016277	FORWARD:          0	MERGED:          0	TO_CACHE:   16016277

L1D SPEC fills:          0  NON-SPEC fills:     604601
L1D Test counter :          0
L1D Leapfrog:          0
L1D MSHR merge:      85261
L1D TOTAL     ACCESS:   87596761  HIT:   59178106  MISS:   28418655  HIT %:    67.5574  MISS %:    32.4426   MPKI: 142.093
L1D LOAD      TOTAL       ACCESS:   55262908  HIT:   40929273  MISS:   14333635  HIT %:    74.0628  MISS %:    25.9372   MPKI: 71.6682
L1D LOAD      NON_SPEC    ACCESS:    5992551  HIT:    5387950  MISS:     604601  HIT %:    89.9108  MISS %:    10.0892   MPKI: 3.023
L1D LOAD      SPEC        ACCESS:   49270357  HIT:   35541323  MISS:   13729034  HIT %:    72.1353  MISS %:    27.8647   MPKI: 68.6452
L1D RFO       NON_SPEC    ACCESS:   15719587  HIT:   14496132  MISS:    1223455  HIT %:     92.217  MISS %:      7.783   MPKI: 6.11728
L1D PREFETCH  NON_SPEC    ACCESS:          5  HIT:          3  MISS:          2  HIT %:         60  MISS %:         40   MPKI: 1e-05
L1D COMMIT LOAD NON_SPEC    ACCESS:    5733056  HIT:    3228158  MISS:    2504898  HIT %:    56.3078  MISS %:    43.6922   MPKI: 12.5245
L1D COMMIT WRITE NON_SPEC    ACCESS:   10881205  HIT:     524540  MISS:   10356665  HIT %:    4.82061  MISS %:    95.1794   MPKI: 51.7833
L1D PREFETCH  REQUESTED:         12  ISSUED:         12  USEFUL:          0  USELESS:          2
L1D USEFUL LOAD PREFETCHES:          0 PREFETCH ISSUED TO LOWER LEVEL:          2  ACCURACY: 0
L1D TIMELY PREFETCHES:          0 LATE PREFETCHES: 0 DROPPED PREFETCHES: 0
L1D COMMIT LATE PREFETCHES: 0 MISSED OPPORTUNITY: 0 LATE IN PQ: 0 UNCOVERED: 0
L1D COMMIT LATE MSHR PREFETCHES: 0
L1D MPKI TOTAL: 72.0945 MSHR LATE: 0 PQ LATE: 0 COMMIT LATE: 0 MISSED OPPORTUNITY: 0 UNCOVERED: 0
L1D PREFETCHES SAME FILL-ORIGIN LEVEL: 2 DIFFERENT FILL-ORIGIN LEVEL: 0
L1D AVERAGE MISS LATENCY: 14.7579 cycles
L1D AVERAGE MISS LATENCY LOAD: 18.0091 cycles
L1D AVERAGE MISS LATENCY PREFETCH: 215 cycles
L1D AVERAGE MSHR OCCUPANCY: 3.30797
L1D MSHR FULL: 0.119521
L1D RQ	ACCESS:   62357220	FORWARD:          0	MERGED:    1136933	TO_CACHE:   61220286
L1D WQ	ACCESS:   26897479	FORWARD:          1	MERGED:     125355	TO_CACHE:   26772124
L1D PQ	ACCESS:         12	FORWARD:          0	MERGED:          5	TO_CACHE:          7

L1D UNIQUE REGIONS ACCESSED: 0
L1D REGIONS CONFLICTS: 0
L1D Cross Page Prefetch Requests: 0
L1D Same Page Prefetch Requests: 15
L1D ROI Sum of L1D PQ occupancy: 95
L1D PREFETCHES PUSHED FROM L2C: 0
L1I SPEC fills:          0  NON-SPEC fills:          0
L1I Test counter :          0
L1I Leapfrog:          0
L1I MSHR merge:    2854695
L1I TOTAL     ACCESS:   31989607  HIT:   26205178  MISS:    5784429  HIT %:    81.9178  MISS %:    18.0822   MPKI: 28.9221
L1I LOAD      TOTAL       ACCESS:   31989607  HIT:   26205178  MISS:    5784429  HIT %:    81.9178  MISS %:    18.0822   MPKI: 28.9221
L1I LOAD      NON_SPEC    ACCESS:   31989607  HIT:   26205178  MISS:    5784429  HIT %:    81.9178  MISS %:    18.0822   MPKI: 28.9221
L1I PREFETCH  REQUESTED:          0  ISSUED:          0  USEFUL:          0  USELESS:          0
L1I USEFUL LOAD PREFETCHES:          0 PREFETCH ISSUED TO LOWER LEVEL:          0  ACCURACY: -nan
L1I TIMELY PREFETCHES:          0 LATE PREFETCHES: 0 DROPPED PREFETCHES: 0
L1I COMMIT LATE PREFETCHES: 0 MISSED OPPORTUNITY: 0 LATE IN PQ: 0 UNCOVERED: 0
L1I COMMIT LATE MSHR PREFETCHES: 0
L1I MPKI TOTAL: 43.1956 MSHR LATE: 0 PQ LATE: 0 COMMIT LATE: 0 MISSED OPPORTUNITY: 0 UNCOVERED: 0
L1I PREFETCHES SAME FILL-ORIGIN LEVEL: 0 DIFFERENT FILL-ORIGIN LEVEL: 0
L1I AVERAGE MISS LATENCY: 14.0385 cycles
L1I AVERAGE MISS LATENCY LOAD: 14.0385 cycles
L1I AVERAGE MISS LATENCY PREFETCH: -nan cycles
L1I AVERAGE MSHR OCCUPANCY: 0.21832
L1I MSHR FULL: 0
L1I RQ	ACCESS:   49661944	FORWARD:          0	MERGED:   14817640	TO_CACHE:   34844304

BTB SPEC fills:          0  NON-SPEC fills:          0
BTB Test counter :          0
BTB Leapfrog:          0
BTB MSHR merge:          0
BTB TOTAL     ACCESS:    1169485  HIT:    1096958  MISS:      72527  HIT %:    93.7984  MISS %:    6.20162   MPKI: 0.362635
BTB BRANCH_DIRECT_JUMP	ACCESS:     217104  HIT:     217073  MISS:         31
BTB BRANCH_INDIRECT	ACCESS:      36158  HIT:      36156  MISS:          2
BTB BRANCH_CONDITIONAL	ACCESS:     482257  HIT:     482171  MISS:         86
BTB BRANCH_DIRECT_CALL	ACCESS:     216983  HIT:     216939  MISS:         44
BTB BRANCH_INDIRECT_CALL	ACCESS:          0  HIT:          0  MISS:          0
BTB BRANCH_RETURN	ACCESS:     216983  HIT:     144619  MISS:      72364
BTB BRANCH_OTHER ACCESS:          0  HIT:          0  MISS:          0

L2C SPEC fills:          0  NON-SPEC fills:      48163
L2C Test counter :          0
L2C Leapfrog:          0
L2C MSHR merge:          0
L2C TOTAL     ACCESS:   26389966  HIT:   24401993  MISS:    1987973  HIT %:    92.4669  MISS %:    7.53306   MPKI: 9.93986
L2C LOAD      TOTAL       ACCESS:   20111649  HIT:   19157375  MISS:     954274  HIT %:    95.2551  MISS %:    4.74488   MPKI: 4.77137
L2C LOAD      NON_SPEC    ACCESS:    6388803  HIT:    6340261  MISS:      48542  HIT %:    99.2402  MISS %:   0.759798   MPKI: 0.24271
L2C LOAD      SPEC        ACCESS:   13722846  HIT:   12817114  MISS:     905732  HIT %:    93.3998  MISS %:    6.60018   MPKI: 4.52866
L2C RFO       NON_SPEC    ACCESS:    1220971  HIT:    1103885  MISS:     117086  HIT %:    90.4104  MISS %:    9.58958   MPKI: 0.58543
L2C PREFETCH  NON_SPEC    ACCESS:          2  HIT:          0  MISS:          2  HIT %:          0  MISS %:        100   MPKI: 1e-05
L2C WRITEBACK NON_SPEC    ACCESS:    1236125  HIT:    1236125  MISS:          0  HIT %:        100  MISS %:          0   MPKI: 0
L2C CLEAN_EVICTION NON_SPEC    ACCESS:    1274896  HIT:     541766  MISS:     733130  HIT %:    42.4949  MISS %:    57.5051   MPKI: 3.66565
L2C COMMIT LOAD NON_SPEC    ACCESS:    2504857  HIT:    2332634  MISS:     172223  HIT %:    93.1244  MISS %:    6.87556   MPKI: 0.861115
L2C LOAD TRANSLATION NON_SPEC    ACCESS:      41466  HIT:      30208  MISS:      11258  HIT %:      72.85  MISS %:      27.15   MPKI: 0.05629
L2C PREFETCH  REQUESTED:          0  ISSUED:          0  USEFUL:          0  USELESS:          2
L2C USEFUL LOAD PREFETCHES:          0 PREFETCH ISSUED TO LOWER LEVEL:          2  ACCURACY: 0
L2C TIMELY PREFETCHES:          0 LATE PREFETCHES: 0 DROPPED PREFETCHES: 0
L2C COMMIT LATE PREFETCHES: 0 MISSED OPPORTUNITY: 0 LATE IN PQ: 0 UNCOVERED: 0
L2C COMMIT LATE MSHR PREFETCHES: 0
L2C MPKI TOTAL: 4.77137 MSHR LATE: 0 PQ LATE: 0 COMMIT LATE: 0 MISSED OPPORTUNITY: 0 UNCOVERED: 0
L2C PREFETCHES SAME FILL-ORIGIN LEVEL: 0 DIFFERENT FILL-ORIGIN LEVEL: 0
L2C AVERAGE MISS LATENCY: 95.9374 cycles
L2C AVERAGE MISS LATENCY LOAD: 90.8929 cycles
L2C AVERAGE MISS LATENCY PREFETCH: 200 cycles
L2C AVERAGE MSHR OCCUPANCY: 0.586891
L2C MSHR FULL: 0
L2C RQ	ACCESS:   23887885	FORWARD:          0	MERGED:          0	TO_CACHE:   23878943
L2C WQ	ACCESS:    2511021	FORWARD:       8942	MERGED:          0	TO_CACHE:    2511021
L2C PQ	ACCESS:          2	FORWARD:          0	MERGED:          0	TO_CACHE:          2

L2C Instructions Evicting Data 375
L2C Translations Evicting Data 11121
L2C Data Evicting Data 333893
L2C Instructions Evicting Instructions 0
L2C Translations Evicting Instructions 4
L2C Data Evicting Instructions 117
L2C Instructions Evicting Translations 4
L2C Translations Evicting Translations 133
L2C Data Evicting Translations 3464
L2C Dense regions hint from L2: 0
PSCL5 SPEC fills:          0  NON-SPEC fills:          0
PSCL5 Test counter :          0
PSCL5 Leapfrog:          0
PSCL5 MSHR merge:          0
PSCL5 TOTAL     ACCESS:          0  HIT:          0  MISS:          0  HIT %:       -nan  MISS %:       -nan   MPKI: 0
PSCL5 PREFETCH  REQUESTED:          0  ISSUED:          0  USEFUL:          0  USELESS:          0
PSCL5 USEFUL LOAD PREFETCHES:          0 PREFETCH ISSUED TO LOWER LEVEL:          0  ACCURACY: -nan
PSCL5 TIMELY PREFETCHES:          0 LATE PREFETCHES: 0 DROPPED PREFETCHES: 0
PSCL5 COMMIT LATE PREFETCHES: 0 MISSED OPPORTUNITY: 0 LATE IN PQ: 0 UNCOVERED: 0
PSCL5 COMMIT LATE MSHR PREFETCHES: 0
PSCL5 MPKI TOTAL: 0 MSHR LATE: 0 PQ LATE: 0 COMMIT LATE: 0 MISSED OPPORTUNITY: 0 UNCOVERED: 0
PSCL5 PREFETCHES SAME FILL-ORIGIN LEVEL: 0 DIFFERENT FILL-ORIGIN LEVEL: 0

PSCL4 SPEC fills:          0  NON-SPEC fills:          0
PSCL4 Test counter :          0
PSCL4 Leapfrog:          0
PSCL4 MSHR merge:          0
PSCL4 TOTAL     ACCESS:          0  HIT:          0  MISS:          0  HIT %:       -nan  MISS %:       -nan   MPKI: 0
PSCL4 PREFETCH  REQUESTED:          0  ISSUED:          0  USEFUL:          0  USELESS:          0
PSCL4 USEFUL LOAD PREFETCHES:          0 PREFETCH ISSUED TO LOWER LEVEL:          0  ACCURACY: -nan
PSCL4 TIMELY PREFETCHES:          0 LATE PREFETCHES: 0 DROPPED PREFETCHES: 0
PSCL4 COMMIT LATE PREFETCHES: 0 MISSED OPPORTUNITY: 0 LATE IN PQ: 0 UNCOVERED: 0
PSCL4 COMMIT LATE MSHR PREFETCHES: 0
PSCL4 MPKI TOTAL: 0 MSHR LATE: 0 PQ LATE: 0 COMMIT LATE: 0 MISSED OPPORTUNITY: 0 UNCOVERED: 0
PSCL4 PREFETCHES SAME FILL-ORIGIN LEVEL: 0 DIFFERENT FILL-ORIGIN LEVEL: 0

PSCL3 SPEC fills:          0  NON-SPEC fills:          0
PSCL3 Test counter :          0
PSCL3 Leapfrog:          0
PSCL3 MSHR merge:          0
PSCL3 TOTAL     ACCESS:          0  HIT:          0  MISS:          0  HIT %:       -nan  MISS %:       -nan   MPKI: 0
PSCL3 PREFETCH  REQUESTED:          0  ISSUED:          0  USEFUL:          0  USELESS:          0
PSCL3 USEFUL LOAD PREFETCHES:          0 PREFETCH ISSUED TO LOWER LEVEL:          0  ACCURACY: -nan
PSCL3 TIMELY PREFETCHES:          0 LATE PREFETCHES: 0 DROPPED PREFETCHES: 0
PSCL3 COMMIT LATE PREFETCHES: 0 MISSED OPPORTUNITY: 0 LATE IN PQ: 0 UNCOVERED: 0
PSCL3 COMMIT LATE MSHR PREFETCHES: 0
PSCL3 MPKI TOTAL: 0 MSHR LATE: 0 PQ LATE: 0 COMMIT LATE: 0 MISSED OPPORTUNITY: 0 UNCOVERED: 0
PSCL3 PREFETCHES SAME FILL-ORIGIN LEVEL: 0 DIFFERENT FILL-ORIGIN LEVEL: 0

PSCL2 SPEC fills:          0  NON-SPEC fills:          0
PSCL2 Test counter :          0
PSCL2 Leapfrog:          0
PSCL2 MSHR merge:          0
PSCL2 TOTAL     ACCESS:          0  HIT:          0  MISS:          0  HIT %:       -nan  MISS %:       -nan   MPKI: 0
PSCL2 PREFETCH  REQUESTED:          0  ISSUED:          0  USEFUL:          0  USELESS:          0
PSCL2 USEFUL LOAD PREFETCHES:          0 PREFETCH ISSUED TO LOWER LEVEL:          0  ACCURACY: -nan
PSCL2 TIMELY PREFETCHES:          0 LATE PREFETCHES: 0 DROPPED PREFETCHES: 0
PSCL2 COMMIT LATE PREFETCHES: 0 MISSED OPPORTUNITY: 0 LATE IN PQ: 0 UNCOVERED: 0
PSCL2 COMMIT LATE MSHR PREFETCHES: 0
PSCL2 MPKI TOTAL: 0 MSHR LATE: 0 PQ LATE: 0 COMMIT LATE: 0 MISSED OPPORTUNITY: 0 UNCOVERED: 0
PSCL2 PREFETCHES SAME FILL-ORIGIN LEVEL: 0 DIFFERENT FILL-ORIGIN LEVEL: 0

LLC SPEC fills:          0  NON-SPEC fills:      10173
LLC Test counter :          0
LLC Leapfrog:          0
LLC MSHR merge:          0
LLC TOTAL     ACCESS:    2148705  HIT:    1224286  MISS:     924419  HIT %:    56.9779  MISS %:    43.0221   MPKI: 4.62209
LLC LOAD      TOTAL       ACCESS:     953562  HIT:     545179  MISS:     408383  HIT %:    57.1729  MISS %:    42.8271   MPKI: 2.04191
LLC LOAD      NON_SPEC    ACCESS:      48531  HIT:      37979  MISS:      10552  HIT %:    78.2572  MISS %:    21.7428   MPKI: 0.05276
LLC LOAD      SPEC        ACCESS:     905031  HIT:     507200  MISS:     397831  HIT %:    56.0423  MISS %:    43.9577   MPKI: 1.98916
LLC RFO       NON_SPEC    ACCESS:     117086  HIT:          0  MISS:     117086  HIT %:          0  MISS %:        100   MPKI: 0.58543
LLC PREFETCH  NON_SPEC    ACCESS:          2  HIT:          0  MISS:          2  HIT %:          0  MISS %:        100   MPKI: 1e-05
LLC WRITEBACK NON_SPEC    ACCESS:     117004  HIT:     117004  MISS:          0  HIT %:        100  MISS %:          0   MPKI: 0
LLC CLEAN_EVICTION NON_SPEC    ACCESS:     777767  HIT:     444450  MISS:     333317  HIT %:    57.1444  MISS %:    42.8556   MPKI: 1.66658
LLC COMMIT LOAD NON_SPEC    ACCESS:     172026  HIT:     107515  MISS:      64511  HIT %:    62.4993  MISS %:    37.5007   MPKI: 0.322555
LLC LOAD TRANSLATION NON_SPEC    ACCESS:      11258  HIT:      10138  MISS:       1120  HIT %:    90.0515  MISS %:    9.94848   MPKI: 0.0056
LLC PREFETCH  REQUESTED:          0  ISSUED:          0  USEFUL:          0  USELESS:          2
LLC USEFUL LOAD PREFETCHES:          0 PREFETCH ISSUED TO LOWER LEVEL:          2  ACCURACY: 0
LLC TIMELY PREFETCHES:          0 LATE PREFETCHES: 0 DROPPED PREFETCHES: 0
LLC COMMIT LATE PREFETCHES: 0 MISSED OPPORTUNITY: 0 LATE IN PQ: 0 UNCOVERED: 0
LLC COMMIT LATE MSHR PREFETCHES: 0
LLC MPKI TOTAL: 2.04191 MSHR LATE: 0 PQ LATE: 0 COMMIT LATE: 0 MISSED OPPORTUNITY: 0 UNCOVERED: 0
LLC PREFETCHES SAME FILL-ORIGIN LEVEL: 0 DIFFERENT FILL-ORIGIN LEVEL: 0
LLC AVERAGE MISS LATENCY: 174.161 cycles
LLC AVERAGE MISS LATENCY LOAD: 161.74 cycles
LLC AVERAGE MISS LATENCY PREFETCH: 170 cycles
LLC AVERAGE MSHR OCCUPANCY: 2.05097
LLC MSHR FULL: 0
LLC RQ	ACCESS:    1254841	FORWARD:          0	MERGED:          0	TO_CACHE:    1253932
LLC WQ	ACCESS:     894771	FORWARD:        909	MERGED:          0	TO_CACHE:     894771
LLC PQ	ACCESS:          2	FORWARD:          0	MERGED:          0	TO_CACHE:          2

LLC Dense regions hint to LLC: 0

RAW hits: 510007
Loads Generated: 77835662
Loads sent to L1D: 77325656
Stores Generated: 16016275
Stores sent to L1D: 16016277
Major fault: 0 Minor fault: 8463
Allocated PAGES: 8463
Total Load insts: 136243585
Total Non-spec loads: 8942918
Percentage of speculative loads: 93.4361

LeapFrogging counter: 33019060
Commit hits: 43825929 miss: 27055962
Commit hit %: 61.8295 miss %: 38.1705
Commits not translated: 0
Loads retired: 14333635
Stores retired: 16016277
Cache fills: 14333635
L1D response latency: 18.0091 cycles
Load retirement latency: 211.794 cycles
OOO test counter: 0
Discarded buffer inserts: 43825929 hits: 572765 hit %: 1.30691
Filter prediction accuracy: 98.254
Speculative prefetch buffer size: 0
CPU 0 L1D PC-based stride prefetcher final stats
Degree: 3

DRAM Statistics
 CHANNEL 0
 RQ ROW_BUFFER_HIT:     344612  ROW_BUFFER_MISS:     246490
 DBUS_CONGESTED:        720
 WQ ROW_BUFFER_HIT:     115762  ROW_BUFFER_MISS:     359599  FULL:          0

 AVG_CONGESTED_CYCLE: 5
 All warmup complete: 2
Channel 0 Bank busy for read cycles: 0
Channel 0 Bank busy for write cycles: 0
Channel 0
Rank 0
0banks busy for read cycles: 265913664
0banks busy for write cycles: 255368
1banks busy for read cycles: 28948189
1banks busy for write cycles: 31347026
2banks busy for read cycles: 6059844
2banks busy for write cycles: 8800990
3banks busy for read cycles: 2547758
3banks busy for write cycles: 3201423
4banks busy for read cycles: 828744
4banks busy for write cycles: 1089586
5banks busy for read cycles: 361427
5banks busy for write cycles: 369345
6banks busy for read cycles: 59603
6banks busy for write cycles: 171962
7banks busy for read cycles: 2494
7banks busy for write cycles: 73168
8banks busy for read cycles: 0
8banks busy for write cycles: 18939

CPU 0 Branch Prediction Accuracy: 99.9869% MPKI: 0.001165 Average ROB Occupancy at Mispredict: 21.8112
Branch types
NOT_BRANCH: 198225688 99.1128%
BRANCH_DIRECT_JUMP: 217104 0.108552%
BRANCH_INDIRECT: 36158 0.018079%
BRANCH_CONDITIONAL: 1086728 0.543364%
BRANCH_DIRECT_CALL: 216983 0.108492%
BRANCH_INDIRECT_CALL: 0 0%
BRANCH_RETURN: 216983 0.108492%
BRANCH_OTHER: 0 0%

DRAM PAGES: 1048576
Allocated PAGES: 8463
