
*** ChampSim Multicore Out-of-Order Simulator ***

Warmup Instructions: 50000000
Simulation Instructions: 200000000
Number of CPUs: 1
LLC sets: 2048
LLC ways: 16
L0D sets: 16
L0D ways: 2
ROB size: 352
LQ size: 128
SQ size: 72
Secure Berti: OFF
Berti: OFF
Berti Fill: OFF
On commit prefetching: OFF
Hit-based filter: ON
Time-guarding: ON
Free-slotting: ON
Leap-frogging: ON
Train prefetcher on L0D bypass: OFF
No translation penalty for prefetchers: OFF
Prefetch to L0D only: OFF
Prefetch to L1D only: OFF
Clean evictions: ON
Commit loads: ON
Commit write: ON
Fill commit loads to L2C, LLC: ON
DRAM IO FREQUENCY: 6400
ROB SIZE: 352
Off-chip DRAM Size: 4096 MB Channels: 1 Width: 64-bit Data Rate: 6400 MT/s
CPU 0 runs /home/sumon/secure_berti/GhostMinion/../../traces/spec/607.cactuBSSN_s-2421B.champsimtrace.xz
.xz
BTB has LRU replacement policy
ITLB has LRU replacement policy
DTLB has LRU replacement policy
STLB has LRU replacement policy
L1I has LRU replacement policy
L0D has LRU replacement policy
CPU 0 L1D IP-based stride prefetcher
L1D has LRU replacement policy
L2C has LRU replacement policy
LLC has LRU replacement policy
Heartbeat CPU 0 instructions: 10000002 cycles: 4437474 heartbeat IPC: 2.25353 cumulative IPC: 2.25353 (Simulation time: 0 hr 0 min 44 sec) 
Heartbeat CPU 0 instructions: 20000001 cycles: 8871270 heartbeat IPC: 2.2554 cumulative IPC: 2.25447 (Simulation time: 0 hr 1 min 28 sec) 
Heartbeat CPU 0 instructions: 30000002 cycles: 13309424 heartbeat IPC: 2.25319 cumulative IPC: 2.25404 (Simulation time: 0 hr 2 min 12 sec) 
Heartbeat CPU 0 instructions: 40000001 cycles: 17744438 heartbeat IPC: 2.25478 cumulative IPC: 2.25423 (Simulation time: 0 hr 2 min 56 sec) 
Heartbeat CPU 0 instructions: 50000003 cycles: 22181152 heartbeat IPC: 2.25392 cumulative IPC: 2.25417 (Simulation time: 0 hr 3 min 42 sec) 

Warmup complete CPU 0 instructions: 50000003 cycles: 22181152 (Simulation time: 0 hr 3 min 42 sec) 

Heartbeat CPU 0 instructions: 60000002 cycles: 34872056 heartbeat IPC: 0.787966 cumulative IPC: 0.787966 (Simulation time: 0 hr 4 min 29 sec) 
Heartbeat CPU 0 instructions: 70000001 cycles: 45197593 heartbeat IPC: 0.968473 cumulative IPC: 0.868944 (Simulation time: 0 hr 5 min 12 sec) 
Heartbeat CPU 0 instructions: 80000001 cycles: 55514307 heartbeat IPC: 0.969301 cumulative IPC: 0.900005 (Simulation time: 0 hr 5 min 56 sec) 
Heartbeat CPU 0 instructions: 90000000 cycles: 65842135 heartbeat IPC: 0.968258 cumulative IPC: 0.91615 (Simulation time: 0 hr 6 min 40 sec) 
Heartbeat CPU 0 instructions: 100000000 cycles: 76158734 heartbeat IPC: 0.969312 cumulative IPC: 0.92631 (Simulation time: 0 hr 7 min 24 sec) 
Heartbeat CPU 0 instructions: 110000000 cycles: 86462156 heartbeat IPC: 0.970551 cumulative IPC: 0.933402 (Simulation time: 0 hr 8 min 8 sec) 
Heartbeat CPU 0 instructions: 120000000 cycles: 96789759 heartbeat IPC: 0.968279 cumulative IPC: 0.93823 (Simulation time: 0 hr 8 min 53 sec) 
Heartbeat CPU 0 instructions: 130000002 cycles: 107119445 heartbeat IPC: 0.968084 cumulative IPC: 0.94186 (Simulation time: 0 hr 9 min 37 sec) 
Heartbeat CPU 0 instructions: 140000000 cycles: 117442006 heartbeat IPC: 0.968752 cumulative IPC: 0.944774 (Simulation time: 0 hr 10 min 22 sec) 
Heartbeat CPU 0 instructions: 150000001 cycles: 127845053 heartbeat IPC: 0.961257 cumulative IPC: 0.946397 (Simulation time: 0 hr 11 min 6 sec) 
Heartbeat CPU 0 instructions: 160000002 cycles: 138107606 heartbeat IPC: 0.974416 cumulative IPC: 0.948877 (Simulation time: 0 hr 11 min 51 sec) 
Heartbeat CPU 0 instructions: 170000002 cycles: 148348130 heartbeat IPC: 0.976513 cumulative IPC: 0.95112 (Simulation time: 0 hr 12 min 34 sec) 
Heartbeat CPU 0 instructions: 180000001 cycles: 158603363 heartbeat IPC: 0.975112 cumulative IPC: 0.952924 (Simulation time: 0 hr 13 min 15 sec) 
Heartbeat CPU 0 instructions: 190000000 cycles: 168874895 heartbeat IPC: 0.973565 cumulative IPC: 0.954369 (Simulation time: 0 hr 13 min 55 sec) 
Heartbeat CPU 0 instructions: 200000001 cycles: 179111745 heartbeat IPC: 0.976863 cumulative IPC: 0.955837 (Simulation time: 0 hr 14 min 36 sec) 
Heartbeat CPU 0 instructions: 210000003 cycles: 189352265 heartbeat IPC: 0.976513 cumulative IPC: 0.957103 (Simulation time: 0 hr 15 min 14 sec) 
Heartbeat CPU 0 instructions: 220000000 cycles: 199607701 heartbeat IPC: 0.975092 cumulative IPC: 0.958143 (Simulation time: 0 hr 15 min 51 sec) 
Heartbeat CPU 0 instructions: 230000003 cycles: 209856275 heartbeat IPC: 0.975746 cumulative IPC: 0.959104 (Simulation time: 0 hr 16 min 26 sec) 
Heartbeat CPU 0 instructions: 240000000 cycles: 220258117 heartbeat IPC: 0.961368 cumulative IPC: 0.959223 (Simulation time: 0 hr 17 min 1 sec) 
Heartbeat CPU 0 instructions: 250000002 cycles: 230497030 heartbeat IPC: 0.976666 cumulative IPC: 0.96008 (Simulation time: 0 hr 17 min 35 sec) 
Finished CPU 0 instructions: 200000003 cycles: 208315879 cumulative IPC: 0.96008 (Simulation time: 0 hr 17 min 35 sec) 
 Instruction ID: 250000065

ChampSim completed all CPUs

Region of Interest Statistics

CPU 0 cumulative IPC: 0.96008 instructions: 200000003 cycles: 208315879
ITLB SPEC fills:          0  NON-SPEC fills:          0
ITLB Test counter :          0
ITLB Leapfrog:          0
ITLB MSHR merge:          0
ITLB TOTAL     ACCESS:   26446714  HIT:   26446664  MISS:         50  HIT %:    99.9998  MISS %: 0.000189059   MPKI: 0.00025
ITLB LOAD TRANSLATION NON_SPEC    ACCESS:   26446714  HIT:   26446664  MISS:         50  HIT %:    99.9998  MISS %: 0.000189059   MPKI: 0.00025
ITLB PREFETCH  REQUESTED:          0  ISSUED:          0  USEFUL:          0  USELESS:          0
ITLB USEFUL LOAD PREFETCHES:          0 PREFETCH ISSUED TO LOWER LEVEL:          0  ACCURACY: -nan
ITLB TIMELY PREFETCHES:          0 LATE PREFETCHES: 0 DROPPED PREFETCHES: 0
ITLB COMMIT LATE PREFETCHES: 0 MISSED OPPORTUNITY: 0 LATE IN PQ: 0 UNCOVERED: 0
ITLB COMMIT LATE MSHR PREFETCHES: 0
ITLB MPKI TOTAL: 0 MSHR LATE: 0 PQ LATE: 0 COMMIT LATE: 0 MISSED OPPORTUNITY: 0 UNCOVERED: 0
ITLB PREFETCHES SAME FILL-ORIGIN LEVEL: 0 DIFFERENT FILL-ORIGIN LEVEL: 0
ITLB AVERAGE MISS LATENCY: 450.86 cycles
ITLB AVERAGE MISS LATENCY LOAD: -nan cycles
ITLB AVERAGE MISS LATENCY PREFETCH: -nan cycles
ITLB AVERAGE MSHR OCCUPANCY: 3.40307e-07
ITLB MSHR FULL: 0
ITLB RQ	ACCESS:   34796252	FORWARD:          0	MERGED:    8349530	TO_CACHE:   26446722

DTLB SPEC fills:          0  NON-SPEC fills:          0
DTLB Test counter :          0
DTLB Leapfrog:          0
DTLB MSHR merge:          0
DTLB TOTAL     ACCESS:   44865569  HIT:   29857945  MISS:   15007624  HIT %:    66.5498  MISS %:    33.4502   MPKI: 75.0381
DTLB LOAD TRANSLATION NON_SPEC    ACCESS:   44865569  HIT:   29857945  MISS:   15007624  HIT %:    66.5498  MISS %:    33.4502   MPKI: 75.0381
DTLB PREFETCH  REQUESTED:          0  ISSUED:          0  USEFUL:          0  USELESS:          0
DTLB USEFUL LOAD PREFETCHES:          0 PREFETCH ISSUED TO LOWER LEVEL:          0  ACCURACY: -nan
DTLB TIMELY PREFETCHES:          0 LATE PREFETCHES: 0 DROPPED PREFETCHES: 0
DTLB COMMIT LATE PREFETCHES: 0 MISSED OPPORTUNITY: 0 LATE IN PQ: 0 UNCOVERED: 0
DTLB COMMIT LATE MSHR PREFETCHES: 0
DTLB MPKI TOTAL: 0 MSHR LATE: 0 PQ LATE: 0 COMMIT LATE: 0 MISSED OPPORTUNITY: 0 UNCOVERED: 0
DTLB PREFETCHES SAME FILL-ORIGIN LEVEL: 0 DIFFERENT FILL-ORIGIN LEVEL: 0
DTLB AVERAGE MISS LATENCY: 10.0555 cycles
DTLB AVERAGE MISS LATENCY LOAD: -nan cycles
DTLB AVERAGE MISS LATENCY PREFETCH: -nan cycles
DTLB AVERAGE MSHR OCCUPANCY: 1.07243
DTLB MSHR FULL: 0.0370211
DTLB RQ	ACCESS:   63368392	FORWARD:          0	MERGED:   17481322	TO_CACHE:   45887070

STLB SPEC fills:          0  NON-SPEC fills:          0
STLB Test counter :          0
STLB Leapfrog:          0
STLB MSHR merge:          0
STLB TOTAL     ACCESS:   18097666  HIT:   18073114  MISS:      24552  HIT %:    99.8643  MISS %:   0.135664   MPKI: 0.12276
STLB LOAD TRANSLATION NON_SPEC    ACCESS:   15007674  HIT:   14983122  MISS:      24552  HIT %:    99.8364  MISS %:   0.163596   MPKI: 0.12276
STLB TRANSLATION FROM L1D PREFETCHER NON_SPEC    ACCESS:    3089992  HIT:    3089992  MISS:          0  HIT %:        100  MISS %:          0   MPKI: 0
STLB PREFETCH  REQUESTED:          0  ISSUED:          0  USEFUL:          0  USELESS:          0
STLB USEFUL LOAD PREFETCHES:          0 PREFETCH ISSUED TO LOWER LEVEL:          0  ACCURACY: -nan
STLB TIMELY PREFETCHES:          0 LATE PREFETCHES: 0 DROPPED PREFETCHES: 0
STLB COMMIT LATE PREFETCHES: 0 MISSED OPPORTUNITY: 0 LATE IN PQ: 0 UNCOVERED: 0
STLB COMMIT LATE MSHR PREFETCHES: 0
STLB MPKI TOTAL: 0 MSHR LATE: 0 PQ LATE: 0 COMMIT LATE: 0 MISSED OPPORTUNITY: 0 UNCOVERED: 0
STLB PREFETCHES SAME FILL-ORIGIN LEVEL: 0 DIFFERENT FILL-ORIGIN LEVEL: 0
STLB AVERAGE MISS LATENCY: 443.107 cycles
STLB AVERAGE MISS LATENCY LOAD: -nan cycles
STLB AVERAGE MISS LATENCY PREFETCH: -nan cycles
STLB AVERAGE MSHR OCCUPANCY: 0.020166
STLB MSHR FULL: 0
STLB RQ	ACCESS:   24315347	FORWARD:          0	MERGED:    6217680	TO_CACHE:   18097667

STLB Hit, L1D data hit: 0
STLB Hit, L2C data hit: 0
STLB Hit, LLC data hit: 0
STLB Hit, LLC data miss: 0
STLB STLB hints to L2: 0
L0D SPEC fills:   31893400  NON-SPEC fills:          0
L0D TimeGuard Request with older TS:     436311 Restricted eviction:    1002038 read:     122653
L0D Test counter :          0
L0D Leapfrog:          0
L0D MSHR merge:    2803390
L0D TOTAL     ACCESS:   37779895  HIT:    3825151  MISS:   33954744  HIT %:    10.1248  MISS %:    89.8752   MPKI: 169.774
L0D LOAD      TOTAL       ACCESS:   37779895  HIT:    3825151  MISS:   33954744  HIT %:    10.1248  MISS %:    89.8752   MPKI: 169.774
L0D LOAD      NON_SPEC    ACCESS:    1116301  HIT:      56993  MISS:    1059308  HIT %:    5.10552  MISS %:    94.8945   MPKI: 5.29654
L0D LOAD      SPEC        ACCESS:   36663594  HIT:    3768158  MISS:   32895436  HIT %:    10.2777  MISS %:    89.7223   MPKI: 164.477
L0D PREFETCH  REQUESTED:          0  ISSUED:          0  USEFUL:          0  USELESS:          0
L0D USEFUL LOAD PREFETCHES:          0 PREFETCH ISSUED TO LOWER LEVEL:          0  ACCURACY: -nan
L0D TIMELY PREFETCHES:          0 LATE PREFETCHES: 0 DROPPED PREFETCHES: 0
L0D COMMIT LATE PREFETCHES: 0 MISSED OPPORTUNITY: 0 LATE IN PQ: 0 UNCOVERED: 0
L0D COMMIT LATE MSHR PREFETCHES: 0
L0D MPKI TOTAL: 183.791 MSHR LATE: 0 PQ LATE: 0 COMMIT LATE: 0 MISSED OPPORTUNITY: 0 UNCOVERED: 0
L0D PREFETCHES SAME FILL-ORIGIN LEVEL: 0 DIFFERENT FILL-ORIGIN LEVEL: 0
L0D AVERAGE MISS LATENCY: 13.2058 cycles
L0D AVERAGE MISS LATENCY LOAD: 13.2058 cycles
L0D AVERAGE MISS LATENCY PREFETCH: -nan cycles
L0D AVERAGE MSHR OCCUPANCY: 2.88098
L0D MSHR FULL: 0.136875
L0D RQ	ACCESS:   57222600	FORWARD:          0	MERGED:   16639322	TO_CACHE:   40583278
L0D WQ	ACCESS:   22785114	FORWARD:          0	MERGED:          0	TO_CACHE:   22785114

L1D SPEC fills:          0  NON-SPEC fills:     403574
L1D Test counter :          0
L1D Leapfrog:          0
L1D MSHR merge:      53644
L1D TOTAL     ACCESS:   85590126  HIT:   36542185  MISS:   49047941  HIT %:    42.6944  MISS %:    57.3056   MPKI: 245.24
L1D LOAD      TOTAL       ACCESS:   33901471  HIT:   12494304  MISS:   21407167  HIT %:    36.8548  MISS %:    63.1452   MPKI: 107.036
L1D LOAD      NON_SPEC    ACCESS:    1057747  HIT:     654173  MISS:     403574  HIT %:    61.8459  MISS %:    38.1541   MPKI: 2.01787
L1D LOAD      SPEC        ACCESS:   32843724  HIT:   11840131  MISS:   21003593  HIT %:    36.0499  MISS %:    63.9501   MPKI: 105.018
L1D RFO       NON_SPEC    ACCESS:   22573091  HIT:   20927114  MISS:    1645977  HIT %:    92.7082  MISS %:    7.29177   MPKI: 8.22988
L1D PREFETCH  NON_SPEC    ACCESS:    5542293  HIT:     513233  MISS:    5029060  HIT %:     9.2603  MISS %:    90.7397   MPKI: 25.1453
L1D COMMIT LOAD NON_SPEC    ACCESS:    3135865  HIT:    2536655  MISS:     599210  HIT %:    80.8917  MISS %:    19.1083   MPKI: 2.99605
L1D COMMIT WRITE NON_SPEC    ACCESS:   20437406  HIT:      70879  MISS:   20366527  HIT %:    0.34681  MISS %:    99.6532   MPKI: 101.833
L1D PREFETCH  REQUESTED:   10303040  ISSUED:    9643284  USEFUL:     145241  USELESS:    4883659
L1D USEFUL LOAD PREFETCHES:     145241 PREFETCH ISSUED TO LOWER LEVEL:   15254497  ACCURACY: 0.952119
L1D TIMELY PREFETCHES:     145241 LATE PREFETCHES: 452 DROPPED PREFETCHES: 0
L1D COMMIT LATE PREFETCHES: 0 MISSED OPPORTUNITY: 0 LATE IN PQ: 0 UNCOVERED: 0
L1D COMMIT LATE MSHR PREFETCHES: 0
L1D MPKI TOTAL: 107.302 MSHR LATE: 0.00226 PQ LATE: 0 COMMIT LATE: 0 MISSED OPPORTUNITY: 0 UNCOVERED: 0
L1D PREFETCHES SAME FILL-ORIGIN LEVEL: 5850642 DIFFERENT FILL-ORIGIN LEVEL: 9403855
L1D AVERAGE MISS LATENCY: 11.0335 cycles
L1D AVERAGE MISS LATENCY LOAD: 11.8125 cycles
L1D AVERAGE MISS LATENCY PREFETCH: 50.0872 cycles
L1D AVERAGE MSHR OCCUPANCY: 2.93485
L1D MSHR FULL: 0.0177256
L1D RQ	ACCESS:   42699677	FORWARD:          0	MERGED:    5598423	TO_CACHE:   37101252
L1D WQ	ACCESS:   43222519	FORWARD:          2	MERGED:      37864	TO_CACHE:   43184655
L1D PQ	ACCESS:    9643284	FORWARD:          0	MERGED:     335612	TO_CACHE:    9307672

L1D UNIQUE REGIONS ACCESSED: 0
L1D REGIONS CONFLICTS: 0
L1D Cross Page Prefetch Requests: 0
L1D Same Page Prefetch Requests: 9643284
L1D ROI Sum of L1D PQ occupancy: 166266893
L1D PREFETCHES PUSHED FROM L2C: 0
L1I SPEC fills:          0  NON-SPEC fills:          0
L1I Test counter :          0
L1I Leapfrog:          0
L1I MSHR merge:      24722
L1I TOTAL     ACCESS:   34771531  HIT:   34721874  MISS:      49657  HIT %:    99.8572  MISS %:   0.142809   MPKI: 0.248285
L1I LOAD      TOTAL       ACCESS:   34771531  HIT:   34721874  MISS:      49657  HIT %:    99.8572  MISS %:   0.142809   MPKI: 0.248285
L1I LOAD      NON_SPEC    ACCESS:   34771531  HIT:   34721874  MISS:      49657  HIT %:    99.8572  MISS %:   0.142809   MPKI: 0.248285
L1I PREFETCH  REQUESTED:          0  ISSUED:          0  USEFUL:          0  USELESS:          0
L1I USEFUL LOAD PREFETCHES:          0 PREFETCH ISSUED TO LOWER LEVEL:          0  ACCURACY: -nan
L1I TIMELY PREFETCHES:          0 LATE PREFETCHES: 0 DROPPED PREFETCHES: 0
L1I COMMIT LATE PREFETCHES: 0 MISSED OPPORTUNITY: 0 LATE IN PQ: 0 UNCOVERED: 0
L1I COMMIT LATE MSHR PREFETCHES: 0
L1I MPKI TOTAL: 0.371895 MSHR LATE: 0 PQ LATE: 0 COMMIT LATE: 0 MISSED OPPORTUNITY: 0 UNCOVERED: 0
L1I PREFETCHES SAME FILL-ORIGIN LEVEL: 0 DIFFERENT FILL-ORIGIN LEVEL: 0
L1I AVERAGE MISS LATENCY: 17.4838 cycles
L1I AVERAGE MISS LATENCY LOAD: 17.4838 cycles
L1I AVERAGE MISS LATENCY PREFETCH: -nan cycles
L1I AVERAGE MSHR OCCUPANCY: 0.00193435
L1I MSHR FULL: 0
L1I RQ	ACCESS:   51131316	FORWARD:          0	MERGED:   16335064	TO_CACHE:   34796252

BTB SPEC fills:          0  NON-SPEC fills:          0
BTB Test counter :          0
BTB Leapfrog:          0
BTB MSHR merge:          0
BTB TOTAL     ACCESS:     207305  HIT:     204093  MISS:       3212  HIT %:    98.4506  MISS %:    1.54941   MPKI: 0.01606
BTB BRANCH_DIRECT_JUMP	ACCESS:      61458  HIT:      61423  MISS:         35
BTB BRANCH_INDIRECT	ACCESS:      58898  HIT:      58820  MISS:         78
BTB BRANCH_CONDITIONAL	ACCESS:      74915  HIT:      74516  MISS:        399
BTB BRANCH_DIRECT_CALL	ACCESS:       6013  HIT:       5388  MISS:        625
BTB BRANCH_INDIRECT_CALL	ACCESS:          3  HIT:          0  MISS:          3
BTB BRANCH_RETURN	ACCESS:       6018  HIT:       3946  MISS:       2072
BTB BRANCH_OTHER ACCESS:          0  HIT:          0  MISS:          0

L2C SPEC fills:          0  NON-SPEC fills:       2013
L2C Test counter :          0
L2C Leapfrog:          0
L2C MSHR merge:          0
L2C TOTAL     ACCESS:   34337911  HIT:   32305858  MISS:    2032053  HIT %:    94.0822  MISS %:    5.91781   MPKI: 10.1603
L2C LOAD      TOTAL       ACCESS:   21100982  HIT:   21011719  MISS:      89263  HIT %:     99.577  MISS %:   0.423028   MPKI: 0.446315
L2C LOAD      NON_SPEC    ACCESS:     428445  HIT:     425591  MISS:       2854  HIT %:    99.3339  MISS %:    0.66613   MPKI: 0.01427
L2C LOAD      SPEC        ACCESS:   20672537  HIT:   20586128  MISS:      86409  HIT %:     99.582  MISS %:   0.417989   MPKI: 0.432045
L2C RFO       NON_SPEC    ACCESS:    1640027  HIT:    1638762  MISS:       1265  HIT %:    99.9229  MISS %:  0.0771329   MPKI: 0.006325
L2C PREFETCH  NON_SPEC    ACCESS:    8779476  HIT:    6952989  MISS:    1826487  HIT %:    79.1959  MISS %:    20.8041   MPKI: 9.13243
L2C WRITEBACK NON_SPEC    ACCESS:    1648880  HIT:    1648862  MISS:         18  HIT %:    99.9989  MISS %: 0.00109165   MPKI: 9e-05
L2C CLEAN_EVICTION NON_SPEC    ACCESS:     448042  HIT:     367098  MISS:      80944  HIT %:    81.9338  MISS %:    18.0662   MPKI: 0.40472
L2C COMMIT LOAD NON_SPEC    ACCESS:     597817  HIT:     592023  MISS:       5794  HIT %:    99.0308  MISS %:   0.969193   MPKI: 0.02897
L2C LOAD TRANSLATION NON_SPEC    ACCESS:     122687  HIT:      94405  MISS:      28282  HIT %:    76.9478  MISS %:    23.0522   MPKI: 0.14141
L2C PREFETCH  REQUESTED:          0  ISSUED:          0  USEFUL:    1810241  USELESS:      15720
L2C USEFUL LOAD PREFETCHES:    1810241 PREFETCH ISSUED TO LOWER LEVEL:    1826490  ACCURACY: 99.1104
L2C TIMELY PREFETCHES:    1810241 LATE PREFETCHES: 2 DROPPED PREFETCHES: 0
L2C COMMIT LATE PREFETCHES: 0 MISSED OPPORTUNITY: 0 LATE IN PQ: 0 UNCOVERED: 0
L2C COMMIT LATE MSHR PREFETCHES: 0
L2C MPKI TOTAL: 0.446315 MSHR LATE: 1e-05 PQ LATE: 0 COMMIT LATE: 0 MISSED OPPORTUNITY: 0 UNCOVERED: 0
L2C PREFETCHES SAME FILL-ORIGIN LEVEL: 1200086 DIFFERENT FILL-ORIGIN LEVEL: 0
L2C AVERAGE MISS LATENCY: 337.097 cycles
L2C AVERAGE MISS LATENCY LOAD: 135.788 cycles
L2C AVERAGE MISS LATENCY PREFETCH: 366.43 cycles
L2C AVERAGE MSHR OCCUPANCY: 3.36882
L2C MSHR FULL: 0.0393511
L2C RQ	ACCESS:   23824247	FORWARD:          0	MERGED:          0	TO_CACHE:   23461513
L2C WQ	ACCESS:    2096955	FORWARD:     362734	MERGED:         32	TO_CACHE:    2096923
L2C PQ	ACCESS:    8779637	FORWARD:          0	MERGED:        122	TO_CACHE:    8779515

L2C Instructions Evicting Data 832
L2C Translations Evicting Data 27085
L2C Data Evicting Data 1808708
L2C Instructions Evicting Instructions 7
L2C Translations Evicting Instructions 3
L2C Data Evicting Instructions 888
L2C Instructions Evicting Translations 2
L2C Translations Evicting Translations 1194
L2C Data Evicting Translations 25963
L2C Dense regions hint from L2: 0
PSCL5 SPEC fills:          0  NON-SPEC fills:          0
PSCL5 Test counter :          0
PSCL5 Leapfrog:          0
PSCL5 MSHR merge:          0
PSCL5 TOTAL     ACCESS:          0  HIT:          0  MISS:          0  HIT %:       -nan  MISS %:       -nan   MPKI: 0
PSCL5 PREFETCH  REQUESTED:          0  ISSUED:          0  USEFUL:          0  USELESS:          0
PSCL5 USEFUL LOAD PREFETCHES:          0 PREFETCH ISSUED TO LOWER LEVEL:          0  ACCURACY: -nan
PSCL5 TIMELY PREFETCHES:          0 LATE PREFETCHES: 0 DROPPED PREFETCHES: 0
PSCL5 COMMIT LATE PREFETCHES: 0 MISSED OPPORTUNITY: 0 LATE IN PQ: 0 UNCOVERED: 0
PSCL5 COMMIT LATE MSHR PREFETCHES: 0
PSCL5 MPKI TOTAL: 0 MSHR LATE: 0 PQ LATE: 0 COMMIT LATE: 0 MISSED OPPORTUNITY: 0 UNCOVERED: 0
PSCL5 PREFETCHES SAME FILL-ORIGIN LEVEL: 0 DIFFERENT FILL-ORIGIN LEVEL: 0

PSCL4 SPEC fills:          0  NON-SPEC fills:          0
PSCL4 Test counter :          0
PSCL4 Leapfrog:          0
PSCL4 MSHR merge:          0
PSCL4 TOTAL     ACCESS:          0  HIT:          0  MISS:          0  HIT %:       -nan  MISS %:       -nan   MPKI: 0
PSCL4 PREFETCH  REQUESTED:          0  ISSUED:          0  USEFUL:          0  USELESS:          0
PSCL4 USEFUL LOAD PREFETCHES:          0 PREFETCH ISSUED TO LOWER LEVEL:          0  ACCURACY: -nan
PSCL4 TIMELY PREFETCHES:          0 LATE PREFETCHES: 0 DROPPED PREFETCHES: 0
PSCL4 COMMIT LATE PREFETCHES: 0 MISSED OPPORTUNITY: 0 LATE IN PQ: 0 UNCOVERED: 0
PSCL4 COMMIT LATE MSHR PREFETCHES: 0
PSCL4 MPKI TOTAL: 0 MSHR LATE: 0 PQ LATE: 0 COMMIT LATE: 0 MISSED OPPORTUNITY: 0 UNCOVERED: 0
PSCL4 PREFETCHES SAME FILL-ORIGIN LEVEL: 0 DIFFERENT FILL-ORIGIN LEVEL: 0

PSCL3 SPEC fills:          0  NON-SPEC fills:          0
PSCL3 Test counter :          0
PSCL3 Leapfrog:          0
PSCL3 MSHR merge:          0
PSCL3 TOTAL     ACCESS:          0  HIT:          0  MISS:          0  HIT %:       -nan  MISS %:       -nan   MPKI: 0
PSCL3 PREFETCH  REQUESTED:          0  ISSUED:          0  USEFUL:          0  USELESS:          0
PSCL3 USEFUL LOAD PREFETCHES:          0 PREFETCH ISSUED TO LOWER LEVEL:          0  ACCURACY: -nan
PSCL3 TIMELY PREFETCHES:          0 LATE PREFETCHES: 0 DROPPED PREFETCHES: 0
PSCL3 COMMIT LATE PREFETCHES: 0 MISSED OPPORTUNITY: 0 LATE IN PQ: 0 UNCOVERED: 0
PSCL3 COMMIT LATE MSHR PREFETCHES: 0
PSCL3 MPKI TOTAL: 0 MSHR LATE: 0 PQ LATE: 0 COMMIT LATE: 0 MISSED OPPORTUNITY: 0 UNCOVERED: 0
PSCL3 PREFETCHES SAME FILL-ORIGIN LEVEL: 0 DIFFERENT FILL-ORIGIN LEVEL: 0

PSCL2 SPEC fills:          0  NON-SPEC fills:          0
PSCL2 Test counter :          0
PSCL2 Leapfrog:          0
PSCL2 MSHR merge:          0
PSCL2 TOTAL     ACCESS:          0  HIT:          0  MISS:          0  HIT %:       -nan  MISS %:       -nan   MPKI: 0
PSCL2 PREFETCH  REQUESTED:          0  ISSUED:          0  USEFUL:          0  USELESS:          0
PSCL2 USEFUL LOAD PREFETCHES:          0 PREFETCH ISSUED TO LOWER LEVEL:          0  ACCURACY: -nan
PSCL2 TIMELY PREFETCHES:          0 LATE PREFETCHES: 0 DROPPED PREFETCHES: 0
PSCL2 COMMIT LATE PREFETCHES: 0 MISSED OPPORTUNITY: 0 LATE IN PQ: 0 UNCOVERED: 0
PSCL2 COMMIT LATE MSHR PREFETCHES: 0
PSCL2 MPKI TOTAL: 0 MSHR LATE: 0 PQ LATE: 0 COMMIT LATE: 0 MISSED OPPORTUNITY: 0 UNCOVERED: 0
PSCL2 PREFETCHES SAME FILL-ORIGIN LEVEL: 0 DIFFERENT FILL-ORIGIN LEVEL: 0

LLC SPEC fills:          0  NON-SPEC fills:        833
LLC Test counter :          0
LLC Leapfrog:          0
LLC MSHR merge:          0
LLC TOTAL     ACCESS:    2213755  HIT:     619158  MISS:    1594597  HIT %:    27.9687  MISS %:    72.0313   MPKI: 7.97298
LLC LOAD      TOTAL       ACCESS:      89244  HIT:      30748  MISS:      58496  HIT %:    34.4539  MISS %:    65.5461   MPKI: 0.29248
LLC LOAD      NON_SPEC    ACCESS:       2854  HIT:       1191  MISS:       1663  HIT %:    41.7309  MISS %:    58.2691   MPKI: 0.008315
LLC LOAD      SPEC        ACCESS:      86390  HIT:      29557  MISS:      56833  HIT %:    34.2135  MISS %:    65.7865   MPKI: 0.284165
LLC RFO       NON_SPEC    ACCESS:       1262  HIT:        154  MISS:       1108  HIT %:    12.2029  MISS %:    87.7971   MPKI: 0.00554
LLC PREFETCH  NON_SPEC    ACCESS:    1826488  HIT:     354745  MISS:    1471743  HIT %:    19.4222  MISS %:    80.5778   MPKI: 7.35871
LLC WRITEBACK NON_SPEC    ACCESS:     175403  HIT:     175370  MISS:         33  HIT %:    99.9812  MISS %:  0.0188138   MPKI: 0.000165
LLC CLEAN_EVICTION NON_SPEC    ACCESS:      87298  HIT:      31334  MISS:      55964  HIT %:    35.8931  MISS %:    64.1069   MPKI: 0.27982
LLC COMMIT LOAD NON_SPEC    ACCESS:       5778  HIT:       2188  MISS:       3590  HIT %:    37.8678  MISS %:    62.1322   MPKI: 0.01795
LLC LOAD TRANSLATION NON_SPEC    ACCESS:      28282  HIT:      24619  MISS:       3663  HIT %:    87.0483  MISS %:    12.9517   MPKI: 0.018315
LLC PREFETCH  REQUESTED:          0  ISSUED:          0  USEFUL:       9458  USELESS:    1431391
LLC USEFUL LOAD PREFETCHES:       9458 PREFETCH ISSUED TO LOWER LEVEL:    1471744  ACCURACY: 0.642639
LLC TIMELY PREFETCHES:       9458 LATE PREFETCHES: 0 DROPPED PREFETCHES: 0
LLC COMMIT LATE PREFETCHES: 0 MISSED OPPORTUNITY: 0 LATE IN PQ: 0 UNCOVERED: 0
LLC COMMIT LATE MSHR PREFETCHES: 0
LLC MPKI TOTAL: 0.29248 MSHR LATE: 0 PQ LATE: 0 COMMIT LATE: 0 MISSED OPPORTUNITY: 0 UNCOVERED: 0
LLC PREFETCHES SAME FILL-ORIGIN LEVEL: 0 DIFFERENT FILL-ORIGIN LEVEL: 0
LLC AVERAGE MISS LATENCY: 391.731 cycles
LLC AVERAGE MISS LATENCY LOAD: 167.716 cycles
LLC AVERAGE MISS LATENCY PREFETCH: 416.047 cycles
LLC AVERAGE MSHR OCCUPANCY: 8.55082
LLC MSHR FULL: 0
LLC RQ	ACCESS:     124602	FORWARD:          0	MERGED:          0	TO_CACHE:     124566
LLC WQ	ACCESS:     262701	FORWARD:         37	MERGED:          0	TO_CACHE:     262701
LLC PQ	ACCESS:    1826490	FORWARD:          0	MERGED:          0	TO_CACHE:    1826489

LLC Dense regions hint to LLC: 0

RAW hits: 69155
Loads Generated: 57291759
Loads sent to L1D: 57222600
Stores Generated: 22785115
Stores sent to L1D: 22785114
Major fault: 0 Minor fault: 17275
Allocated PAGES: 17275
Total Load insts: 86575316
Total Non-spec loads: 2201574
Percentage of speculative loads: 97.457

LeapFrogging counter: 2803838
Commit hits: 31509535 miss: 24524357
Commit hit %: 56.233 miss %: 43.767
Commits not translated: 0
Loads retired: 21407166
Stores retired: 22785114
Cache fills: 21407167
L1D response latency: 11.8125 cycles
Load retirement latency: 42.2561 cycles
OOO test counter: 0
Discarded buffer inserts: 31509535 hits: 560576 hit %: 1.77907
Filter prediction accuracy: 98.7055
Speculative prefetch buffer size: 0
CPU 0 L1D PC-based stride prefetcher final stats
Degree: 3

DRAM Statistics
 CHANNEL 0
 RQ ROW_BUFFER_HIT:    1075244  ROW_BUFFER_MISS:     463356
 DBUS_CONGESTED:        188
 WQ ROW_BUFFER_HIT:     120799  ROW_BUFFER_MISS:     144177  FULL:         17

 AVG_CONGESTED_CYCLE: 4
 All warmup complete: 2
Channel 0 Bank busy for read cycles: 0
Channel 0 Bank busy for write cycles: 0
Channel 0
Rank 0
0banks busy for read cycles: 148942869
0banks busy for write cycles: 53945
1banks busy for read cycles: 16669300
1banks busy for write cycles: 6323052
2banks busy for read cycles: 5564530
2banks busy for write cycles: 2308570
3banks busy for read cycles: 10404907
3banks busy for write cycles: 1477696
4banks busy for read cycles: 7180320
4banks busy for write cycles: 1055537
5banks busy for read cycles: 3820717
5banks busy for write cycles: 753821
6banks busy for read cycles: 2044643
6banks busy for write cycles: 635641
7banks busy for read cycles: 548741
7banks busy for write cycles: 347361
8banks busy for read cycles: 85842
8banks busy for write cycles: 98388

CPU 0 Branch Prediction Accuracy: 99.5304% MPKI: 0.00654 Average ROB Occupancy at Mispredict: 30.88
Branch types
NOT_BRANCH: 199721154 99.8606%
BRANCH_DIRECT_JUMP: 61458 0.030729%
BRANCH_INDIRECT: 58898 0.029449%
BRANCH_CONDITIONAL: 146150 0.073075%
BRANCH_DIRECT_CALL: 6013 0.0030065%
BRANCH_INDIRECT_CALL: 3 1.5e-06%
BRANCH_RETURN: 6018 0.003009%
BRANCH_OTHER: 0 0%

DRAM PAGES: 1048576
Allocated PAGES: 17275
