
*** ChampSim Multicore Out-of-Order Simulator ***

Warmup Instructions: 50000000
Simulation Instructions: 200000000
Number of CPUs: 1
LLC sets: 2048
LLC ways: 16
L0D sets: 16
L0D ways: 2
ROB size: 352
LQ size: 128
SQ size: 72
Secure Berti: OFF
Berti: OFF
Berti Fill: OFF
On commit prefetching: OFF
Hit-based filter: ON
Time-guarding: ON
Free-slotting: ON
Leap-frogging: ON
Train prefetcher on L0D bypass: OFF
No translation penalty for prefetchers: OFF
Prefetch to L0D only: OFF
Prefetch to L1D only: OFF
Clean evictions: ON
Commit loads: ON
Commit write: ON
Fill commit loads to L2C, LLC: ON
DRAM IO FREQUENCY: 6400
ROB SIZE: 352
Off-chip DRAM Size: 4096 MB Channels: 1 Width: 64-bit Data Rate: 6400 MT/s
CPU 0 runs /home/sumon/secure_berti/GhostMinion/../../traces/spec/620.omnetpp_s-141B.champsimtrace.xz
.xz
BTB has LRU replacement policy
ITLB has LRU replacement policy
DTLB has LRU replacement policy
STLB has LRU replacement policy
L1I has LRU replacement policy
L0D has LRU replacement policy
CPU 0 L1D IP-based stride prefetcher
L1D has LRU replacement policy
L2C has LRU replacement policy
LLC has LRU replacement policy
Heartbeat CPU 0 instructions: 10000000 cycles: 7997339 heartbeat IPC: 1.25042 cumulative IPC: 1.25042 (Simulation time: 0 hr 0 min 49 sec) 
Heartbeat CPU 0 instructions: 20000001 cycles: 16040947 heartbeat IPC: 1.24322 cumulative IPC: 1.24681 (Simulation time: 0 hr 1 min 38 sec) 
Heartbeat CPU 0 instructions: 30000000 cycles: 24100869 heartbeat IPC: 1.24071 cumulative IPC: 1.24477 (Simulation time: 0 hr 2 min 28 sec) 
Heartbeat CPU 0 instructions: 40000000 cycles: 32128835 heartbeat IPC: 1.24565 cumulative IPC: 1.24499 (Simulation time: 0 hr 3 min 19 sec) 
Heartbeat CPU 0 instructions: 50000003 cycles: 40203086 heartbeat IPC: 1.23851 cumulative IPC: 1.24369 (Simulation time: 0 hr 4 min 13 sec) 

Warmup complete CPU 0 instructions: 50000003 cycles: 40203086 (Simulation time: 0 hr 4 min 13 sec) 

Heartbeat CPU 0 instructions: 60000001 cycles: 82325898 heartbeat IPC: 0.237401 cumulative IPC: 0.237401 (Simulation time: 0 hr 5 min 19 sec) 
Heartbeat CPU 0 instructions: 70000000 cycles: 124911497 heartbeat IPC: 0.234821 cumulative IPC: 0.236104 (Simulation time: 0 hr 6 min 28 sec) 
Heartbeat CPU 0 instructions: 80000003 cycles: 167202859 heartbeat IPC: 0.236455 cumulative IPC: 0.236221 (Simulation time: 0 hr 7 min 35 sec) 
Heartbeat CPU 0 instructions: 90000003 cycles: 209610160 heartbeat IPC: 0.235808 cumulative IPC: 0.236118 (Simulation time: 0 hr 8 min 43 sec) 
Heartbeat CPU 0 instructions: 100000003 cycles: 251596683 heartbeat IPC: 0.238172 cumulative IPC: 0.236526 (Simulation time: 0 hr 9 min 51 sec) 
Heartbeat CPU 0 instructions: 110000000 cycles: 293857490 heartbeat IPC: 0.236626 cumulative IPC: 0.236542 (Simulation time: 0 hr 11 min 0 sec) 
Heartbeat CPU 0 instructions: 120000000 cycles: 335881091 heartbeat IPC: 0.237962 cumulative IPC: 0.236744 (Simulation time: 0 hr 12 min 9 sec) 
Heartbeat CPU 0 instructions: 130000000 cycles: 378045412 heartbeat IPC: 0.237167 cumulative IPC: 0.236797 (Simulation time: 0 hr 13 min 16 sec) 
Heartbeat CPU 0 instructions: 140000000 cycles: 420211444 heartbeat IPC: 0.237158 cumulative IPC: 0.236837 (Simulation time: 0 hr 14 min 18 sec) 
Heartbeat CPU 0 instructions: 150000003 cycles: 462789402 heartbeat IPC: 0.234863 cumulative IPC: 0.236638 (Simulation time: 0 hr 15 min 19 sec) 
Heartbeat CPU 0 instructions: 160000001 cycles: 505051267 heartbeat IPC: 0.23662 cumulative IPC: 0.236636 (Simulation time: 0 hr 16 min 15 sec) 
Heartbeat CPU 0 instructions: 170000000 cycles: 547003879 heartbeat IPC: 0.238364 cumulative IPC: 0.236779 (Simulation time: 0 hr 17 min 3 sec) 
Heartbeat CPU 0 instructions: 180000000 cycles: 589006190 heartbeat IPC: 0.238082 cumulative IPC: 0.236879 (Simulation time: 0 hr 17 min 51 sec) 
Heartbeat CPU 0 instructions: 190000000 cycles: 630859287 heartbeat IPC: 0.238931 cumulative IPC: 0.237025 (Simulation time: 0 hr 18 min 39 sec) 
Heartbeat CPU 0 instructions: 200000000 cycles: 673674027 heartbeat IPC: 0.233564 cumulative IPC: 0.236791 (Simulation time: 0 hr 19 min 26 sec) 
Heartbeat CPU 0 instructions: 210000000 cycles: 716022928 heartbeat IPC: 0.236134 cumulative IPC: 0.236749 (Simulation time: 0 hr 20 min 14 sec) 
Heartbeat CPU 0 instructions: 220000000 cycles: 758622002 heartbeat IPC: 0.234747 cumulative IPC: 0.236631 (Simulation time: 0 hr 21 min 1 sec) 
Heartbeat CPU 0 instructions: 230000001 cycles: 800934409 heartbeat IPC: 0.236337 cumulative IPC: 0.236614 (Simulation time: 0 hr 21 min 48 sec) 
Heartbeat CPU 0 instructions: 240000001 cycles: 843259040 heartbeat IPC: 0.236269 cumulative IPC: 0.236596 (Simulation time: 0 hr 22 min 34 sec) 
Heartbeat CPU 0 instructions: 250000000 cycles: 884779470 heartbeat IPC: 0.240845 cumulative IPC: 0.236805 (Simulation time: 0 hr 23 min 19 sec) 
Finished CPU 0 instructions: 200000001 cycles: 844576385 cumulative IPC: 0.236805 (Simulation time: 0 hr 23 min 19 sec) 
 Instruction ID: 250000041

ChampSim completed all CPUs

Region of Interest Statistics

CPU 0 cumulative IPC: 0.236805 instructions: 200000001 cycles: 844576385
ITLB SPEC fills:          0  NON-SPEC fills:          0
ITLB Test counter :          0
ITLB Leapfrog:          0
ITLB MSHR merge:          0
ITLB TOTAL     ACCESS:   33302143  HIT:   32990039  MISS:     312104  HIT %:    99.0628  MISS %:   0.937189   MPKI: 1.56052
ITLB LOAD TRANSLATION NON_SPEC    ACCESS:   33302143  HIT:   32990039  MISS:     312104  HIT %:    99.0628  MISS %:   0.937189   MPKI: 1.56052
ITLB PREFETCH  REQUESTED:          0  ISSUED:          0  USEFUL:          0  USELESS:          0
ITLB USEFUL LOAD PREFETCHES:          0 PREFETCH ISSUED TO LOWER LEVEL:          0  ACCURACY: -nan
ITLB TIMELY PREFETCHES:          0 LATE PREFETCHES: 0 DROPPED PREFETCHES: 0
ITLB COMMIT LATE PREFETCHES: 0 MISSED OPPORTUNITY: 0 LATE IN PQ: 0 UNCOVERED: 0
ITLB COMMIT LATE MSHR PREFETCHES: 0
ITLB MPKI TOTAL: 0 MSHR LATE: 0 PQ LATE: 0 COMMIT LATE: 0 MISSED OPPORTUNITY: 0 UNCOVERED: 0
ITLB PREFETCHES SAME FILL-ORIGIN LEVEL: 0 DIFFERENT FILL-ORIGIN LEVEL: 0
ITLB AVERAGE MISS LATENCY: 10.1865 cycles
ITLB AVERAGE MISS LATENCY LOAD: -nan cycles
ITLB AVERAGE MISS LATENCY PREFETCH: -nan cycles
ITLB AVERAGE MSHR OCCUPANCY: 0.0092266
ITLB MSHR FULL: 0
ITLB RQ	ACCESS:   37446046	FORWARD:          0	MERGED:    4061370	TO_CACHE:   33384676

DTLB SPEC fills:          0  NON-SPEC fills:          0
DTLB Test counter :          0
DTLB Leapfrog:          0
DTLB MSHR merge:          0
DTLB TOTAL     ACCESS:   81639027  HIT:   77474835  MISS:    4164192  HIT %:    94.8993  MISS %:    5.10074   MPKI: 20.821
DTLB LOAD TRANSLATION NON_SPEC    ACCESS:   81639027  HIT:   77474835  MISS:    4164192  HIT %:    94.8993  MISS %:    5.10074   MPKI: 20.821
DTLB PREFETCH  REQUESTED:          0  ISSUED:          0  USEFUL:          0  USELESS:          0
DTLB USEFUL LOAD PREFETCHES:          0 PREFETCH ISSUED TO LOWER LEVEL:          0  ACCURACY: -nan
DTLB TIMELY PREFETCHES:          0 LATE PREFETCHES: 0 DROPPED PREFETCHES: 0
DTLB COMMIT LATE PREFETCHES: 0 MISSED OPPORTUNITY: 0 LATE IN PQ: 0 UNCOVERED: 0
DTLB COMMIT LATE MSHR PREFETCHES: 0
DTLB MPKI TOTAL: 0 MSHR LATE: 0 PQ LATE: 0 COMMIT LATE: 0 MISSED OPPORTUNITY: 0 UNCOVERED: 0
DTLB PREFETCHES SAME FILL-ORIGIN LEVEL: 0 DIFFERENT FILL-ORIGIN LEVEL: 0
DTLB AVERAGE MISS LATENCY: 39.4474 cycles
DTLB AVERAGE MISS LATENCY LOAD: -nan cycles
DTLB AVERAGE MISS LATENCY PREFETCH: -nan cycles
DTLB AVERAGE MSHR OCCUPANCY: 0.131388
DTLB MSHR FULL: 3.86555e-05
DTLB RQ	ACCESS:   92560831	FORWARD:          0	MERGED:   10816072	TO_CACHE:   81744759

STLB SPEC fills:          0  NON-SPEC fills:          0
STLB Test counter :          0
STLB Leapfrog:          0
STLB MSHR merge:          0
STLB TOTAL     ACCESS:    4729291  HIT:    3759515  MISS:     969776  HIT %:    79.4943  MISS %:    20.5057   MPKI: 4.84888
STLB LOAD TRANSLATION NON_SPEC    ACCESS:    4476296  HIT:    3506520  MISS:     969776  HIT %:    78.3353  MISS %:    21.6647   MPKI: 4.84888
STLB TRANSLATION FROM L1D PREFETCHER NON_SPEC    ACCESS:     252995  HIT:     252995  MISS:          0  HIT %:        100  MISS %:          0   MPKI: 0
STLB PREFETCH  REQUESTED:          0  ISSUED:          0  USEFUL:          0  USELESS:          0
STLB USEFUL LOAD PREFETCHES:          0 PREFETCH ISSUED TO LOWER LEVEL:          0  ACCURACY: -nan
STLB TIMELY PREFETCHES:          0 LATE PREFETCHES: 0 DROPPED PREFETCHES: 0
STLB COMMIT LATE PREFETCHES: 0 MISSED OPPORTUNITY: 0 LATE IN PQ: 0 UNCOVERED: 0
STLB COMMIT LATE MSHR PREFETCHES: 0
STLB MPKI TOTAL: 0 MSHR LATE: 0 PQ LATE: 0 COMMIT LATE: 0 MISSED OPPORTUNITY: 0 UNCOVERED: 0
STLB PREFETCHES SAME FILL-ORIGIN LEVEL: 0 DIFFERENT FILL-ORIGIN LEVEL: 0
STLB AVERAGE MISS LATENCY: 130.999 cycles
STLB AVERAGE MISS LATENCY LOAD: -nan cycles
STLB AVERAGE MISS LATENCY PREFETCH: -nan cycles
STLB AVERAGE MSHR OCCUPANCY: 0.108092
STLB MSHR FULL: 0
STLB RQ	ACCESS:    5186804	FORWARD:          0	MERGED:     457513	TO_CACHE:    4729291

STLB Hit, L1D data hit: 0
STLB Hit, L2C data hit: 0
STLB Hit, LLC data hit: 0
STLB Hit, LLC data miss: 0
STLB STLB hints to L2: 0
L0D SPEC fills:   23197238  NON-SPEC fills:          0
L0D TimeGuard Request with older TS:     266674 Restricted eviction:     140299 read:     298618
L0D Test counter :          0
L0D Leapfrog:          0
L0D MSHR merge:    1024720
L0D TOTAL     ACCESS:   54391010  HIT:    6917732  MISS:   47473278  HIT %:    12.7185  MISS %:    87.2815   MPKI: 237.366
L0D LOAD      TOTAL       ACCESS:   54391010  HIT:    6917732  MISS:   47473278  HIT %:    12.7185  MISS %:    87.2815   MPKI: 237.366
L0D LOAD      NON_SPEC    ACCESS:   24346879  HIT:     211126  MISS:   24135753  HIT %:   0.867158  MISS %:    99.1328   MPKI: 120.679
L0D LOAD      SPEC        ACCESS:   30044131  HIT:    6706606  MISS:   23337525  HIT %:    22.3225  MISS %:    77.6775   MPKI: 116.688
L0D PREFETCH  REQUESTED:          0  ISSUED:          0  USEFUL:          0  USELESS:          0
L0D USEFUL LOAD PREFETCHES:          0 PREFETCH ISSUED TO LOWER LEVEL:          0  ACCURACY: -nan
L0D TIMELY PREFETCHES:          0 LATE PREFETCHES: 0 DROPPED PREFETCHES: 0
L0D COMMIT LATE PREFETCHES: 0 MISSED OPPORTUNITY: 0 LATE IN PQ: 0 UNCOVERED: 0
L0D COMMIT LATE MSHR PREFETCHES: 0
L0D MPKI TOTAL: 242.49 MSHR LATE: 0 PQ LATE: 0 COMMIT LATE: 0 MISSED OPPORTUNITY: 0 UNCOVERED: 0
L0D PREFETCHES SAME FILL-ORIGIN LEVEL: 0 DIFFERENT FILL-ORIGIN LEVEL: 0
L0D AVERAGE MISS LATENCY: 12.8755 cycles
L0D AVERAGE MISS LATENCY LOAD: 12.8755 cycles
L0D AVERAGE MISS LATENCY PREFETCH: -nan cycles
L0D AVERAGE MSHR OCCUPANCY: 0.549123
L0D MSHR FULL: 3.19936e-05
L0D RQ	ACCESS:   63417024	FORWARD:          0	MERGED:    8001300	TO_CACHE:   55415724
L0D WQ	ACCESS:   37145107	FORWARD:          0	MERGED:          0	TO_CACHE:   37145107

L1D SPEC fills:          0  NON-SPEC fills:     639513
L1D Test counter :          0
L1D Leapfrog:          0
L1D MSHR merge:      24386
L1D TOTAL     ACCESS:   88300057  HIT:   81723506  MISS:    6576551  HIT %:     92.552  MISS %:    7.44796   MPKI: 32.8828
L1D LOAD      TOTAL       ACCESS:   47449089  HIT:   44089870  MISS:    3359219  HIT %:    92.9204  MISS %:    7.07963   MPKI: 16.7961
L1D LOAD      NON_SPEC    ACCESS:   24128591  HIT:   23489078  MISS:     639513  HIT %:    97.3496  MISS %:    2.65044   MPKI: 3.19756
L1D LOAD      SPEC        ACCESS:   23320498  HIT:   20600792  MISS:    2719706  HIT %:    88.3377  MISS %:    11.6623   MPKI: 13.5985
L1D RFO       NON_SPEC    ACCESS:   35858841  HIT:   35399249  MISS:     459592  HIT %:    98.7183  MISS %:    1.28167   MPKI: 2.29796
L1D PREFETCH  NON_SPEC    ACCESS:     708514  HIT:     642632  MISS:      65882  HIT %:    90.7014  MISS %:    9.29862   MPKI: 0.32941
L1D COMMIT LOAD NON_SPEC    ACCESS:    1546408  HIT:    1533820  MISS:      12588  HIT %:     99.186  MISS %:   0.814015   MPKI: 0.06294
L1D COMMIT WRITE NON_SPEC    ACCESS:    2737205  HIT:      57935  MISS:    2679270  HIT %:    2.11658  MISS %:    97.8834   MPKI: 13.3963
L1D PREFETCH  REQUESTED:     764998  ISSUED:     764998  USEFUL:      28131  USELESS:      37751
L1D USEFUL LOAD PREFETCHES:      28131 PREFETCH ISSUED TO LOWER LEVEL:      66161  ACCURACY: 42.519
L1D TIMELY PREFETCHES:      28131 LATE PREFETCHES: 197 DROPPED PREFETCHES: 0
L1D COMMIT LATE PREFETCHES: 0 MISSED OPPORTUNITY: 0 LATE IN PQ: 0 UNCOVERED: 0
L1D COMMIT LATE MSHR PREFETCHES: 0
L1D MPKI TOTAL: 16.917 MSHR LATE: 0.000985 PQ LATE: 0 COMMIT LATE: 0 MISSED OPPORTUNITY: 0 UNCOVERED: 0
L1D PREFETCHES SAME FILL-ORIGIN LEVEL: 66081 DIFFERENT FILL-ORIGIN LEVEL: 80
L1D AVERAGE MISS LATENCY: 66.427 cycles
L1D AVERAGE MISS LATENCY LOAD: 109.889 cycles
L1D AVERAGE MISS LATENCY PREFETCH: 116.34 cycles
L1D AVERAGE MSHR OCCUPANCY: 0.260213
L1D MSHR FULL: 2.44796e-07
L1D RQ	ACCESS:   49381653	FORWARD:          0	MERGED:     311091	TO_CACHE:   49020496
L1D WQ	ACCESS:   39885290	FORWARD:      50066	MERGED:     353740	TO_CACHE:   39531550
L1D PQ	ACCESS:     764998	FORWARD:          0	MERGED:      54490	TO_CACHE:     710508

L1D UNIQUE REGIONS ACCESSED: 0
L1D REGIONS CONFLICTS: 0
L1D Cross Page Prefetch Requests: 0
L1D Same Page Prefetch Requests: 935137
L1D ROI Sum of L1D PQ occupancy: 9489206
L1D PREFETCHES PUSHED FROM L2C: 0
L1I SPEC fills:          0  NON-SPEC fills:          0
L1I Test counter :          0
L1I Leapfrog:          0
L1I MSHR merge:      37625
L1I TOTAL     ACCESS:   37408422  HIT:   37287484  MISS:     120938  HIT %:    99.6767  MISS %:   0.323291   MPKI: 0.60469
L1I LOAD      TOTAL       ACCESS:   37408422  HIT:   37287484  MISS:     120938  HIT %:    99.6767  MISS %:   0.323291   MPKI: 0.60469
L1I LOAD      NON_SPEC    ACCESS:   37408422  HIT:   37287484  MISS:     120938  HIT %:    99.6767  MISS %:   0.323291   MPKI: 0.60469
L1I PREFETCH  REQUESTED:          0  ISSUED:          0  USEFUL:          0  USELESS:          0
L1I USEFUL LOAD PREFETCHES:          0 PREFETCH ISSUED TO LOWER LEVEL:          0  ACCURACY: -nan
L1I TIMELY PREFETCHES:          0 LATE PREFETCHES: 0 DROPPED PREFETCHES: 0
L1I COMMIT LATE PREFETCHES: 0 MISSED OPPORTUNITY: 0 LATE IN PQ: 0 UNCOVERED: 0
L1I COMMIT LATE MSHR PREFETCHES: 0
L1I MPKI TOTAL: 0.792815 MSHR LATE: 0 PQ LATE: 0 COMMIT LATE: 0 MISSED OPPORTUNITY: 0 UNCOVERED: 0
L1I PREFETCHES SAME FILL-ORIGIN LEVEL: 0 DIFFERENT FILL-ORIGIN LEVEL: 0
L1I AVERAGE MISS LATENCY: 26.8462 cycles
L1I AVERAGE MISS LATENCY LOAD: 26.8462 cycles
L1I AVERAGE MISS LATENCY PREFETCH: -nan cycles
L1I AVERAGE MSHR OCCUPANCY: 0.00490901
L1I MSHR FULL: 0
L1I RQ	ACCESS:   56566331	FORWARD:          0	MERGED:   19120285	TO_CACHE:   37446046

BTB SPEC fills:          0  NON-SPEC fills:          0
BTB Test counter :          0
BTB Leapfrog:          0
BTB MSHR merge:          0
BTB TOTAL     ACCESS:   32873214  HIT:   30947951  MISS:    1925263  HIT %:    94.1434  MISS %:    5.85663   MPKI: 9.62631
BTB BRANCH_DIRECT_JUMP	ACCESS:    2330259  HIT:    2330115  MISS:        144
BTB BRANCH_INDIRECT	ACCESS:     674228  HIT:     571149  MISS:     103079
BTB BRANCH_CONDITIONAL	ACCESS:   17721648  HIT:   17721119  MISS:        529
BTB BRANCH_DIRECT_CALL	ACCESS:    3701835  HIT:    3701543  MISS:        292
BTB BRANCH_INDIRECT_CALL	ACCESS:    2371706  HIT:    2363088  MISS:       8618
BTB BRANCH_RETURN	ACCESS:    6073538  HIT:    4260937  MISS:    1812601
BTB BRANCH_OTHER ACCESS:          0  HIT:          0  MISS:          0

L2C SPEC fills:          0  NON-SPEC fills:     422795
L2C Test counter :          0
L2C Leapfrog:          0
L2C MSHR merge:          0
L2C TOTAL     ACCESS:   11873614  HIT:    6380630  MISS:    5492984  HIT %:    53.7379  MISS %:    46.2621   MPKI: 27.4649
L2C LOAD      TOTAL       ACCESS:    3479851  HIT:    1003769  MISS:    2476082  HIT %:    28.8452  MISS %:    71.1548   MPKI: 12.3804
L2C LOAD      NON_SPEC    ACCESS:     760424  HIT:     318375  MISS:     442049  HIT %:    41.8681  MISS %:    58.1319   MPKI: 2.21024
L2C LOAD      SPEC        ACCESS:    2719427  HIT:     685394  MISS:    2034033  HIT %:    25.2036  MISS %:    74.7964   MPKI: 10.1702
L2C RFO       NON_SPEC    ACCESS:     459477  HIT:      79787  MISS:     379690  HIT %:    17.3647  MISS %:    82.6353   MPKI: 1.89845
L2C PREFETCH  NON_SPEC    ACCESS:      66160  HIT:      24814  MISS:      41346  HIT %:     37.506  MISS %:     62.494   MPKI: 0.20673
L2C WRITEBACK NON_SPEC    ACCESS:     668741  HIT:     666987  MISS:       1754  HIT %:    99.7377  MISS %:   0.262284   MPKI: 0.00877
L2C CLEAN_EVICTION NON_SPEC    ACCESS:    2337917  HIT:     315090  MISS:    2022827  HIT %:    13.4774  MISS %:    86.5226   MPKI: 10.1141
L2C COMMIT LOAD NON_SPEC    ACCESS:      12588  HIT:       6942  MISS:       5646  HIT %:    55.1478  MISS %:    44.8522   MPKI: 0.02823
L2C LOAD TRANSLATION NON_SPEC    ACCESS:    4848880  HIT:    4283241  MISS:     565639  HIT %:    88.3346  MISS %:    11.6654   MPKI: 2.82819
L2C PREFETCH  REQUESTED:          0  ISSUED:          0  USEFUL:       1932  USELESS:      39411
L2C USEFUL LOAD PREFETCHES:       1932 PREFETCH ISSUED TO LOWER LEVEL:      41346  ACCURACY: 4.67276
L2C TIMELY PREFETCHES:       1932 LATE PREFETCHES: 0 DROPPED PREFETCHES: 0
L2C COMMIT LATE PREFETCHES: 0 MISSED OPPORTUNITY: 0 LATE IN PQ: 0 UNCOVERED: 0
L2C COMMIT LATE MSHR PREFETCHES: 0
L2C MPKI TOTAL: 12.3804 MSHR LATE: 0 PQ LATE: 0 COMMIT LATE: 0 MISSED OPPORTUNITY: 0 UNCOVERED: 0
L2C PREFETCHES SAME FILL-ORIGIN LEVEL: 77 DIFFERENT FILL-ORIGIN LEVEL: 0
L2C AVERAGE MISS LATENCY: 79.7157 cycles
L2C AVERAGE MISS LATENCY LOAD: 133.62 cycles
L2C AVERAGE MISS LATENCY PREFETCH: 161.238 cycles
L2C AVERAGE MSHR OCCUPANCY: 0.372422
L2C MSHR FULL: 0
L2C RQ	ACCESS:    8801018	FORWARD:          0	MERGED:          0	TO_CACHE:    8800796
L2C WQ	ACCESS:    3006658	FORWARD:        223	MERGED:          0	TO_CACHE:    3006658
L2C PQ	ACCESS:      66161	FORWARD:          0	MERGED:          0	TO_CACHE:      66160

L2C Instructions Evicting Data 15752
L2C Translations Evicting Data 473334
L2C Data Evicting Data 705035
L2C Instructions Evicting Instructions 446
L2C Translations Evicting Instructions 3099
L2C Data Evicting Instructions 4689
L2C Instructions Evicting Translations 3056
L2C Translations Evicting Translations 89206
L2C Data Evicting Translations 139753
L2C Dense regions hint from L2: 0
PSCL5 SPEC fills:          0  NON-SPEC fills:          0
PSCL5 Test counter :          0
PSCL5 Leapfrog:          0
PSCL5 MSHR merge:          0
PSCL5 TOTAL     ACCESS:          0  HIT:          0  MISS:          0  HIT %:       -nan  MISS %:       -nan   MPKI: 0
PSCL5 PREFETCH  REQUESTED:          0  ISSUED:          0  USEFUL:          0  USELESS:          0
PSCL5 USEFUL LOAD PREFETCHES:          0 PREFETCH ISSUED TO LOWER LEVEL:          0  ACCURACY: -nan
PSCL5 TIMELY PREFETCHES:          0 LATE PREFETCHES: 0 DROPPED PREFETCHES: 0
PSCL5 COMMIT LATE PREFETCHES: 0 MISSED OPPORTUNITY: 0 LATE IN PQ: 0 UNCOVERED: 0
PSCL5 COMMIT LATE MSHR PREFETCHES: 0
PSCL5 MPKI TOTAL: 0 MSHR LATE: 0 PQ LATE: 0 COMMIT LATE: 0 MISSED OPPORTUNITY: 0 UNCOVERED: 0
PSCL5 PREFETCHES SAME FILL-ORIGIN LEVEL: 0 DIFFERENT FILL-ORIGIN LEVEL: 0

PSCL4 SPEC fills:          0  NON-SPEC fills:          0
PSCL4 Test counter :          0
PSCL4 Leapfrog:          0
PSCL4 MSHR merge:          0
PSCL4 TOTAL     ACCESS:          0  HIT:          0  MISS:          0  HIT %:       -nan  MISS %:       -nan   MPKI: 0
PSCL4 PREFETCH  REQUESTED:          0  ISSUED:          0  USEFUL:          0  USELESS:          0
PSCL4 USEFUL LOAD PREFETCHES:          0 PREFETCH ISSUED TO LOWER LEVEL:          0  ACCURACY: -nan
PSCL4 TIMELY PREFETCHES:          0 LATE PREFETCHES: 0 DROPPED PREFETCHES: 0
PSCL4 COMMIT LATE PREFETCHES: 0 MISSED OPPORTUNITY: 0 LATE IN PQ: 0 UNCOVERED: 0
PSCL4 COMMIT LATE MSHR PREFETCHES: 0
PSCL4 MPKI TOTAL: 0 MSHR LATE: 0 PQ LATE: 0 COMMIT LATE: 0 MISSED OPPORTUNITY: 0 UNCOVERED: 0
PSCL4 PREFETCHES SAME FILL-ORIGIN LEVEL: 0 DIFFERENT FILL-ORIGIN LEVEL: 0

PSCL3 SPEC fills:          0  NON-SPEC fills:          0
PSCL3 Test counter :          0
PSCL3 Leapfrog:          0
PSCL3 MSHR merge:          0
PSCL3 TOTAL     ACCESS:          0  HIT:          0  MISS:          0  HIT %:       -nan  MISS %:       -nan   MPKI: 0
PSCL3 PREFETCH  REQUESTED:          0  ISSUED:          0  USEFUL:          0  USELESS:          0
PSCL3 USEFUL LOAD PREFETCHES:          0 PREFETCH ISSUED TO LOWER LEVEL:          0  ACCURACY: -nan
PSCL3 TIMELY PREFETCHES:          0 LATE PREFETCHES: 0 DROPPED PREFETCHES: 0
PSCL3 COMMIT LATE PREFETCHES: 0 MISSED OPPORTUNITY: 0 LATE IN PQ: 0 UNCOVERED: 0
PSCL3 COMMIT LATE MSHR PREFETCHES: 0
PSCL3 MPKI TOTAL: 0 MSHR LATE: 0 PQ LATE: 0 COMMIT LATE: 0 MISSED OPPORTUNITY: 0 UNCOVERED: 0
PSCL3 PREFETCHES SAME FILL-ORIGIN LEVEL: 0 DIFFERENT FILL-ORIGIN LEVEL: 0

PSCL2 SPEC fills:          0  NON-SPEC fills:          0
PSCL2 Test counter :          0
PSCL2 Leapfrog:          0
PSCL2 MSHR merge:          0
PSCL2 TOTAL     ACCESS:          0  HIT:          0  MISS:          0  HIT %:       -nan  MISS %:       -nan   MPKI: 0
PSCL2 PREFETCH  REQUESTED:          0  ISSUED:          0  USEFUL:          0  USELESS:          0
PSCL2 USEFUL LOAD PREFETCHES:          0 PREFETCH ISSUED TO LOWER LEVEL:          0  ACCURACY: -nan
PSCL2 TIMELY PREFETCHES:          0 LATE PREFETCHES: 0 DROPPED PREFETCHES: 0
PSCL2 COMMIT LATE PREFETCHES: 0 MISSED OPPORTUNITY: 0 LATE IN PQ: 0 UNCOVERED: 0
PSCL2 COMMIT LATE MSHR PREFETCHES: 0
PSCL2 MPKI TOTAL: 0 MSHR LATE: 0 PQ LATE: 0 COMMIT LATE: 0 MISSED OPPORTUNITY: 0 UNCOVERED: 0
PSCL2 PREFETCHES SAME FILL-ORIGIN LEVEL: 0 DIFFERENT FILL-ORIGIN LEVEL: 0

LLC SPEC fills:          0  NON-SPEC fills:     284163
LLC Test counter :          0
LLC Leapfrog:          0
LLC MSHR merge:          0
LLC TOTAL     ACCESS:    6023441  HIT:    2123302  MISS:    3900139  HIT %:    35.2506  MISS %:    64.7494   MPKI: 19.5007
LLC LOAD      TOTAL       ACCESS:    2476078  HIT:     612082  MISS:    1863996  HIT %:    24.7198  MISS %:    75.2802   MPKI: 9.31998
LLC LOAD      NON_SPEC    ACCESS:     442049  HIT:     152251  MISS:     289798  HIT %:    34.4421  MISS %:    65.5579   MPKI: 1.44899
LLC LOAD      SPEC        ACCESS:    2034029  HIT:     459831  MISS:    1574198  HIT %:    22.6069  MISS %:    77.3931   MPKI: 7.87099
LLC RFO       NON_SPEC    ACCESS:     379688  HIT:     137783  MISS:     241905  HIT %:    36.2885  MISS %:    63.7115   MPKI: 1.20952
LLC PREFETCH  NON_SPEC    ACCESS:      41346  HIT:       8858  MISS:      32488  HIT %:    21.4241  MISS %:    78.5759   MPKI: 0.16244
LLC WRITEBACK NON_SPEC    ACCESS:     516512  HIT:     515264  MISS:       1248  HIT %:    99.7584  MISS %:   0.241621   MPKI: 0.00624
LLC CLEAN_EVICTION NON_SPEC    ACCESS:    2038532  HIT:     456460  MISS:    1582072  HIT %:    22.3916  MISS %:    77.6084   MPKI: 7.91036
LLC COMMIT LOAD NON_SPEC    ACCESS:       5646  HIT:       2946  MISS:       2700  HIT %:    52.1785  MISS %:    47.8215   MPKI: 0.0135
LLC LOAD TRANSLATION NON_SPEC    ACCESS:     565639  HIT:     389909  MISS:     175730  HIT %:    68.9325  MISS %:    31.0675   MPKI: 0.87865
LLC PREFETCH  REQUESTED:          0  ISSUED:          0  USEFUL:        940  USELESS:      31568
LLC USEFUL LOAD PREFETCHES:        940 PREFETCH ISSUED TO LOWER LEVEL:      32488  ACCURACY: 2.89338
LLC TIMELY PREFETCHES:        940 LATE PREFETCHES: 0 DROPPED PREFETCHES: 0
LLC COMMIT LATE PREFETCHES: 0 MISSED OPPORTUNITY: 0 LATE IN PQ: 0 UNCOVERED: 0
LLC COMMIT LATE MSHR PREFETCHES: 0
LLC MPKI TOTAL: 9.31998 MSHR LATE: 0 PQ LATE: 0 COMMIT LATE: 0 MISSED OPPORTUNITY: 0 UNCOVERED: 0
LLC PREFETCHES SAME FILL-ORIGIN LEVEL: 0 DIFFERENT FILL-ORIGIN LEVEL: 0
LLC AVERAGE MISS LATENCY: 90.2771 cycles
LLC AVERAGE MISS LATENCY LOAD: 147.452 cycles
LLC AVERAGE MISS LATENCY PREFETCH: 167.003 cycles
LLC AVERAGE MSHR OCCUPANCY: 0.37628
LLC MSHR FULL: 0
LLC RQ	ACCESS:    3427057	FORWARD:          0	MERGED:          0	TO_CACHE:    3427051
LLC WQ	ACCESS:    2555044	FORWARD:          6	MERGED:          0	TO_CACHE:    2555044
LLC PQ	ACCESS:      41346	FORWARD:          0	MERGED:          0	TO_CACHE:      41346

LLC Dense regions hint to LLC: 0

RAW hits: 3455517
Loads Generated: 66872541
Loads sent to L1D: 63417024
Stores Generated: 37145093
Stores sent to L1D: 37145107
Major fault: 0 Minor fault: 53031
Allocated PAGES: 53031
Total Load insts: 78559315
Total Non-spec loads: 27816057
Percentage of speculative loads: 64.5923

LeapFrogging counter: 626
Commit hits: 23011076 miss: 16005388
Commit hit %: 58.9779 miss %: 41.0221
Commits not translated: 0
Loads retired: 3359219
Stores retired: 37145107
Cache fills: 3359219
L1D response latency: 109.889 cycles
Load retirement latency: 197.436 cycles
OOO test counter: 0
Discarded buffer inserts: 23011076 hits: 21730 hit %: 0.0944328
Filter prediction accuracy: 99.9804
Speculative prefetch buffer size: 0
CPU 0 L1D PC-based stride prefetcher final stats
Degree: 3

DRAM Statistics
 CHANNEL 0
 RQ ROW_BUFFER_HIT:     169665  ROW_BUFFER_MISS:    2147141
 DBUS_CONGESTED:       1193
 WQ ROW_BUFFER_HIT:     358748  ROW_BUFFER_MISS:    1580267  FULL:          0

 AVG_CONGESTED_CYCLE: 3
 All warmup complete: 2
Channel 0 Bank busy for read cycles: 0
Channel 0 Bank busy for write cycles: 0
Channel 0
Rank 0
0banks busy for read cycles: 374946908
0banks busy for write cycles: 761910
1banks busy for read cycles: 188009204
1banks busy for write cycles: 124576369
2banks busy for read cycles: 45910207
2banks busy for write cycles: 57182871
3banks busy for read cycles: 11097944
3banks busy for write cycles: 24077868
4banks busy for read cycles: 3985904
4banks busy for write cycles: 9104809
5banks busy for read cycles: 177546
5banks busy for write cycles: 3186547
6banks busy for read cycles: 32657
6banks busy for write cycles: 1079762
7banks busy for read cycles: 23168
7banks busy for write cycles: 307734
8banks busy for read cycles: 30778
8banks busy for write cycles: 84200

CPU 0 Branch Prediction Accuracy: 98.172% MPKI: 3.83776 Average ROB Occupancy at Mispredict: 36.8576
Branch types
NOT_BRANCH: 158010836 79.0054%
BRANCH_DIRECT_JUMP: 2330259 1.16513%
BRANCH_INDIRECT: 674228 0.337114%
BRANCH_CONDITIONAL: 26837262 13.4186%
BRANCH_DIRECT_CALL: 3701835 1.85092%
BRANCH_INDIRECT_CALL: 2371706 1.18585%
BRANCH_RETURN: 6073538 3.03677%
BRANCH_OTHER: 0 0%

DRAM PAGES: 1048576
Allocated PAGES: 53031
