
*** ChampSim Multicore Out-of-Order Simulator ***

Warmup Instructions: 50000000
Simulation Instructions: 200000000
Number of CPUs: 1
LLC sets: 2048
LLC ways: 16
L0D sets: 16
L0D ways: 2
ROB size: 352
LQ size: 128
SQ size: 72
Secure Berti: OFF
Berti: OFF
Berti Fill: OFF
On commit prefetching: OFF
Hit-based filter: ON
Time-guarding: ON
Free-slotting: ON
Leap-frogging: ON
Train prefetcher on L0D bypass: OFF
No translation penalty for prefetchers: OFF
Prefetch to L0D only: OFF
Prefetch to L1D only: OFF
Clean evictions: ON
Commit loads: ON
Commit write: ON
Fill commit loads to L2C, LLC: ON
DRAM IO FREQUENCY: 6400
ROB SIZE: 352
Off-chip DRAM Size: 4096 MB Channels: 1 Width: 64-bit Data Rate: 6400 MT/s
CPU 0 runs /home/sumon/secure_berti/GhostMinion/../../traces/spec/620.omnetpp_s-874B.champsimtrace.xz
.xz
BTB has LRU replacement policy
ITLB has LRU replacement policy
DTLB has LRU replacement policy
STLB has LRU replacement policy
L1I has LRU replacement policy
L0D has LRU replacement policy
CPU 0 L1D IP-based stride prefetcher
L1D has LRU replacement policy
L2C has LRU replacement policy
LLC has LRU replacement policy
Heartbeat CPU 0 instructions: 10000001 cycles: 8127362 heartbeat IPC: 1.23041 cumulative IPC: 1.23041 (Simulation time: 0 hr 0 min 47 sec) 
Heartbeat CPU 0 instructions: 20000000 cycles: 16255452 heartbeat IPC: 1.2303 cumulative IPC: 1.23036 (Simulation time: 0 hr 1 min 35 sec) 
Heartbeat CPU 0 instructions: 30000003 cycles: 24363406 heartbeat IPC: 1.23336 cumulative IPC: 1.23136 (Simulation time: 0 hr 2 min 22 sec) 
Heartbeat CPU 0 instructions: 40000000 cycles: 32496948 heartbeat IPC: 1.22948 cumulative IPC: 1.23088 (Simulation time: 0 hr 3 min 7 sec) 
Heartbeat CPU 0 instructions: 50000000 cycles: 40636669 heartbeat IPC: 1.22854 cumulative IPC: 1.23042 (Simulation time: 0 hr 3 min 51 sec) 

Warmup complete CPU 0 instructions: 50000004 cycles: 40636670 (Simulation time: 0 hr 3 min 51 sec) 

Heartbeat CPU 0 instructions: 60000001 cycles: 81154098 heartbeat IPC: 0.246807 cumulative IPC: 0.246807 (Simulation time: 0 hr 4 min 45 sec) 
Heartbeat CPU 0 instructions: 70000001 cycles: 121333704 heartbeat IPC: 0.248882 cumulative IPC: 0.247841 (Simulation time: 0 hr 5 min 37 sec) 
Heartbeat CPU 0 instructions: 80000002 cycles: 161730960 heartbeat IPC: 0.247542 cumulative IPC: 0.247741 (Simulation time: 0 hr 6 min 30 sec) 
Heartbeat CPU 0 instructions: 90000002 cycles: 201544360 heartbeat IPC: 0.251172 cumulative IPC: 0.24859 (Simulation time: 0 hr 7 min 24 sec) 
Heartbeat CPU 0 instructions: 100000000 cycles: 242382244 heartbeat IPC: 0.244871 cumulative IPC: 0.247837 (Simulation time: 0 hr 8 min 18 sec) 
Heartbeat CPU 0 instructions: 110000000 cycles: 282400538 heartbeat IPC: 0.249886 cumulative IPC: 0.248176 (Simulation time: 0 hr 9 min 12 sec) 
Heartbeat CPU 0 instructions: 120000000 cycles: 322767283 heartbeat IPC: 0.247729 cumulative IPC: 0.248112 (Simulation time: 0 hr 10 min 6 sec) 
Heartbeat CPU 0 instructions: 130000000 cycles: 363294758 heartbeat IPC: 0.246746 cumulative IPC: 0.24794 (Simulation time: 0 hr 11 min 0 sec) 
Heartbeat CPU 0 instructions: 140000001 cycles: 403630790 heartbeat IPC: 0.247917 cumulative IPC: 0.247938 (Simulation time: 0 hr 11 min 53 sec) 
Heartbeat CPU 0 instructions: 150000002 cycles: 444132718 heartbeat IPC: 0.246902 cumulative IPC: 0.247834 (Simulation time: 0 hr 12 min 46 sec) 
Heartbeat CPU 0 instructions: 160000000 cycles: 484913641 heartbeat IPC: 0.245213 cumulative IPC: 0.247593 (Simulation time: 0 hr 13 min 39 sec) 
Heartbeat CPU 0 instructions: 170000000 cycles: 524988991 heartbeat IPC: 0.24953 cumulative IPC: 0.247754 (Simulation time: 0 hr 14 min 29 sec) 
Heartbeat CPU 0 instructions: 180000000 cycles: 565361867 heartbeat IPC: 0.247691 cumulative IPC: 0.247749 (Simulation time: 0 hr 15 min 19 sec) 
Heartbeat CPU 0 instructions: 190000003 cycles: 605852289 heartbeat IPC: 0.246972 cumulative IPC: 0.247693 (Simulation time: 0 hr 16 min 8 sec) 
Heartbeat CPU 0 instructions: 200000000 cycles: 646158504 heartbeat IPC: 0.248101 cumulative IPC: 0.24772 (Simulation time: 0 hr 16 min 56 sec) 
Heartbeat CPU 0 instructions: 210000000 cycles: 686649938 heartbeat IPC: 0.246966 cumulative IPC: 0.247673 (Simulation time: 0 hr 17 min 43 sec) 
Heartbeat CPU 0 instructions: 220000000 cycles: 726800933 heartbeat IPC: 0.24906 cumulative IPC: 0.247754 (Simulation time: 0 hr 18 min 30 sec) 
Heartbeat CPU 0 instructions: 230000002 cycles: 766883107 heartbeat IPC: 0.249488 cumulative IPC: 0.24785 (Simulation time: 0 hr 19 min 16 sec) 
Heartbeat CPU 0 instructions: 240000001 cycles: 807480469 heartbeat IPC: 0.246321 cumulative IPC: 0.247769 (Simulation time: 0 hr 20 min 3 sec) 
Heartbeat CPU 0 instructions: 250000000 cycles: 847935763 heartbeat IPC: 0.247186 cumulative IPC: 0.24774 (Simulation time: 0 hr 20 min 49 sec) 
Finished CPU 0 instructions: 200000000 cycles: 807299094 cumulative IPC: 0.24774 (Simulation time: 0 hr 20 min 49 sec) 
 Instruction ID: 250000019

ChampSim completed all CPUs

Region of Interest Statistics

CPU 0 cumulative IPC: 0.24774 instructions: 200000000 cycles: 807299094
ITLB SPEC fills:          0  NON-SPEC fills:          0
ITLB Test counter :          0
ITLB Leapfrog:          0
ITLB MSHR merge:          0
ITLB TOTAL     ACCESS:   32902637  HIT:   32585276  MISS:     317361  HIT %:    99.0355  MISS %:   0.964546   MPKI: 1.58681
ITLB LOAD TRANSLATION NON_SPEC    ACCESS:   32902637  HIT:   32585276  MISS:     317361  HIT %:    99.0355  MISS %:   0.964546   MPKI: 1.58681
ITLB PREFETCH  REQUESTED:          0  ISSUED:          0  USEFUL:          0  USELESS:          0
ITLB USEFUL LOAD PREFETCHES:          0 PREFETCH ISSUED TO LOWER LEVEL:          0  ACCURACY: -nan
ITLB TIMELY PREFETCHES:          0 LATE PREFETCHES: 0 DROPPED PREFETCHES: 0
ITLB COMMIT LATE PREFETCHES: 0 MISSED OPPORTUNITY: 0 LATE IN PQ: 0 UNCOVERED: 0
ITLB COMMIT LATE MSHR PREFETCHES: 0
ITLB MPKI TOTAL: 0 MSHR LATE: 0 PQ LATE: 0 COMMIT LATE: 0 MISSED OPPORTUNITY: 0 UNCOVERED: 0
ITLB PREFETCHES SAME FILL-ORIGIN LEVEL: 0 DIFFERENT FILL-ORIGIN LEVEL: 0
ITLB AVERAGE MISS LATENCY: 10.4232 cycles
ITLB AVERAGE MISS LATENCY LOAD: -nan cycles
ITLB AVERAGE MISS LATENCY PREFETCH: -nan cycles
ITLB AVERAGE MSHR OCCUPANCY: 0.00937916
ITLB MSHR FULL: 0
ITLB RQ	ACCESS:   37061601	FORWARD:          0	MERGED:    4062381	TO_CACHE:   32999220

DTLB SPEC fills:          0  NON-SPEC fills:          0
DTLB Test counter :          0
DTLB Leapfrog:          0
DTLB MSHR merge:          0
DTLB TOTAL     ACCESS:   81621787  HIT:   77809906  MISS:    3811881  HIT %:    95.3298  MISS %:    4.67018   MPKI: 19.0594
DTLB LOAD TRANSLATION NON_SPEC    ACCESS:   81621787  HIT:   77809906  MISS:    3811881  HIT %:    95.3298  MISS %:    4.67018   MPKI: 19.0594
DTLB PREFETCH  REQUESTED:          0  ISSUED:          0  USEFUL:          0  USELESS:          0
DTLB USEFUL LOAD PREFETCHES:          0 PREFETCH ISSUED TO LOWER LEVEL:          0  ACCURACY: -nan
DTLB TIMELY PREFETCHES:          0 LATE PREFETCHES: 0 DROPPED PREFETCHES: 0
DTLB COMMIT LATE PREFETCHES: 0 MISSED OPPORTUNITY: 0 LATE IN PQ: 0 UNCOVERED: 0
DTLB COMMIT LATE MSHR PREFETCHES: 0
DTLB MPKI TOTAL: 0 MSHR LATE: 0 PQ LATE: 0 COMMIT LATE: 0 MISSED OPPORTUNITY: 0 UNCOVERED: 0
DTLB PREFETCHES SAME FILL-ORIGIN LEVEL: 0 DIFFERENT FILL-ORIGIN LEVEL: 0
DTLB AVERAGE MISS LATENCY: 37.0289 cycles
DTLB AVERAGE MISS LATENCY LOAD: -nan cycles
DTLB AVERAGE MISS LATENCY PREFETCH: -nan cycles
DTLB AVERAGE MSHR OCCUPANCY: 0.113272
DTLB MSHR FULL: 2.48458e-05
DTLB RQ	ACCESS:   92233119	FORWARD:          0	MERGED:   10530969	TO_CACHE:   81702150

STLB SPEC fills:          0  NON-SPEC fills:          0
STLB Test counter :          0
STLB Leapfrog:          0
STLB MSHR merge:          0
STLB TOTAL     ACCESS:    4385099  HIT:    3530856  MISS:     854243  HIT %:    80.5194  MISS %:    19.4806   MPKI: 4.27121
STLB LOAD TRANSLATION NON_SPEC    ACCESS:    4129242  HIT:    3275001  MISS:     854241  HIT %:    79.3124  MISS %:    20.6876   MPKI: 4.27121
STLB TRANSLATION FROM L1D PREFETCHER NON_SPEC    ACCESS:     255857  HIT:     255855  MISS:          2  HIT %:    99.9992  MISS %: 0.000781687   MPKI: 1e-05
STLB PREFETCH  REQUESTED:          0  ISSUED:          0  USEFUL:          2  USELESS:          0
STLB USEFUL LOAD PREFETCHES:          2 PREFETCH ISSUED TO LOWER LEVEL:          0  ACCURACY: inf
STLB TIMELY PREFETCHES:          2 LATE PREFETCHES: 0 DROPPED PREFETCHES: 0
STLB COMMIT LATE PREFETCHES: 0 MISSED OPPORTUNITY: 0 LATE IN PQ: 0 UNCOVERED: 0
STLB COMMIT LATE MSHR PREFETCHES: 0
STLB MPKI TOTAL: 0 MSHR LATE: 0 PQ LATE: 0 COMMIT LATE: 0 MISSED OPPORTUNITY: 0 UNCOVERED: 0
STLB PREFETCHES SAME FILL-ORIGIN LEVEL: 0 DIFFERENT FILL-ORIGIN LEVEL: 0
STLB AVERAGE MISS LATENCY: 125.484 cycles
STLB AVERAGE MISS LATENCY LOAD: -nan cycles
STLB AVERAGE MISS LATENCY PREFETCH: -nan cycles
STLB AVERAGE MSHR OCCUPANCY: 0.100528
STLB MSHR FULL: 0
STLB RQ	ACCESS:    4829874	FORWARD:          0	MERGED:     444775	TO_CACHE:    4385099

STLB Hit, L1D data hit: 0
STLB Hit, L2C data hit: 0
STLB Hit, LLC data hit: 0
STLB Hit, LLC data miss: 0
STLB STLB hints to L2: 0
L0D SPEC fills:   22978642  NON-SPEC fills:          0
L0D TimeGuard Request with older TS:     302681 Restricted eviction:     190157 read:     268184
L0D Test counter :          0
L0D Leapfrog:          0
L0D MSHR merge:    1054882
L0D TOTAL     ACCESS:   54059909  HIT:    6552461  MISS:   47507448  HIT %:    12.1207  MISS %:    87.8793   MPKI: 237.537
L0D LOAD      TOTAL       ACCESS:   54059909  HIT:    6552461  MISS:   47507448  HIT %:    12.1207  MISS %:    87.8793   MPKI: 237.537
L0D LOAD      NON_SPEC    ACCESS:   24552230  HIT:     213574  MISS:   24338656  HIT %:   0.869876  MISS %:    99.1301   MPKI: 121.693
L0D LOAD      SPEC        ACCESS:   29507679  HIT:    6338887  MISS:   23168792  HIT %:    21.4822  MISS %:    78.5178   MPKI: 115.844
L0D PREFETCH  REQUESTED:          0  ISSUED:          0  USEFUL:          0  USELESS:          0
L0D USEFUL LOAD PREFETCHES:          0 PREFETCH ISSUED TO LOWER LEVEL:          0  ACCURACY: -nan
L0D TIMELY PREFETCHES:          0 LATE PREFETCHES: 0 DROPPED PREFETCHES: 0
L0D COMMIT LATE PREFETCHES: 0 MISSED OPPORTUNITY: 0 LATE IN PQ: 0 UNCOVERED: 0
L0D COMMIT LATE MSHR PREFETCHES: 0
L0D MPKI TOTAL: 242.812 MSHR LATE: 0 PQ LATE: 0 COMMIT LATE: 0 MISSED OPPORTUNITY: 0 UNCOVERED: 0
L0D PREFETCHES SAME FILL-ORIGIN LEVEL: 0 DIFFERENT FILL-ORIGIN LEVEL: 0
L0D AVERAGE MISS LATENCY: 11.9339 cycles
L0D AVERAGE MISS LATENCY LOAD: 11.9339 cycles
L0D AVERAGE MISS LATENCY PREFETCH: -nan cycles
L0D AVERAGE MSHR OCCUPANCY: 0.552656
L0D MSHR FULL: 5.98354e-05
L0D RQ	ACCESS:   64238465	FORWARD:          0	MERGED:    9123676	TO_CACHE:   55114789
L0D WQ	ACCESS:   37118330	FORWARD:          0	MERGED:          0	TO_CACHE:   37118330

L1D SPEC fills:          0  NON-SPEC fills:     623271
L1D Test counter :          0
L1D Leapfrog:          0
L1D MSHR merge:      17699
L1D TOTAL     ACCESS:   88425570  HIT:   81935631  MISS:    6489939  HIT %:    92.6606  MISS %:    7.33944   MPKI: 32.4497
L1D LOAD      TOTAL       ACCESS:   47489874  HIT:   44207815  MISS:    3282059  HIT %:    93.0889  MISS %:    6.91107   MPKI: 16.4103
L1D LOAD      NON_SPEC    ACCESS:   24331479  HIT:   23708208  MISS:     623271  HIT %:    97.4384  MISS %:    2.56158   MPKI: 3.11635
L1D LOAD      SPEC        ACCESS:   23158395  HIT:   20499607  MISS:    2658788  HIT %:    88.5191  MISS %:    11.4809   MPKI: 13.2939
L1D RFO       NON_SPEC    ACCESS:   36060796  HIT:   35581207  MISS:     479589  HIT %:    98.6701  MISS %:    1.32995   MPKI: 2.39794
L1D PREFETCH  NON_SPEC    ACCESS:     697676  HIT:     599906  MISS:      97770  HIT %:    85.9863  MISS %:    14.0137   MPKI: 0.48885
L1D COMMIT LOAD NON_SPEC    ACCESS:    1506443  HIT:    1492933  MISS:      13510  HIT %:    99.1032  MISS %:   0.896815   MPKI: 0.06755
L1D COMMIT WRITE NON_SPEC    ACCESS:    2670781  HIT:      53770  MISS:    2617011  HIT %:    2.01327  MISS %:    97.9867   MPKI: 13.0851
L1D PREFETCH  REQUESTED:     749256  ISSUED:     749256  USEFUL:      45854  USELESS:      51912
L1D USEFUL LOAD PREFETCHES:      45854 PREFETCH ISSUED TO LOWER LEVEL:      98677  ACCURACY: 46.4688
L1D TIMELY PREFETCHES:      45854 LATE PREFETCHES: 125 DROPPED PREFETCHES: 0
L1D COMMIT LATE PREFETCHES: 0 MISSED OPPORTUNITY: 0 LATE IN PQ: 0 UNCOVERED: 0
L1D COMMIT LATE MSHR PREFETCHES: 0
L1D MPKI TOTAL: 16.4982 MSHR LATE: 0.000625 PQ LATE: 0 COMMIT LATE: 0 MISSED OPPORTUNITY: 0 UNCOVERED: 0
L1D PREFETCHES SAME FILL-ORIGIN LEVEL: 97896 DIFFERENT FILL-ORIGIN LEVEL: 781
L1D AVERAGE MISS LATENCY: 59.0538 cycles
L1D AVERAGE MISS LATENCY LOAD: 99.1907 cycles
L1D AVERAGE MISS LATENCY PREFETCH: 120.359 cycles
L1D AVERAGE MSHR OCCUPANCY: 0.246741
L1D MSHR FULL: 2.2442e-06
L1D RQ	ACCESS:   49379121	FORWARD:          0	MERGED:     318920	TO_CACHE:   49015081
L1D WQ	ACCESS:   39790715	FORWARD:      45120	MERGED:     331789	TO_CACHE:   39458926
L1D PQ	ACCESS:     749256	FORWARD:          0	MERGED:      48624	TO_CACHE:     700632

L1D UNIQUE REGIONS ACCESSED: 0
L1D REGIONS CONFLICTS: 0
L1D Cross Page Prefetch Requests: 0
L1D Same Page Prefetch Requests: 902483
L1D ROI Sum of L1D PQ occupancy: 9371067
L1D PREFETCHES PUSHED FROM L2C: 0
L1I SPEC fills:          0  NON-SPEC fills:          0
L1I Test counter :          0
L1I Leapfrog:          0
L1I MSHR merge:      30122
L1I TOTAL     ACCESS:   37031480  HIT:   36952472  MISS:      79008  HIT %:    99.7866  MISS %:   0.213354   MPKI: 0.39504
L1I LOAD      TOTAL       ACCESS:   37031480  HIT:   36952472  MISS:      79008  HIT %:    99.7866  MISS %:   0.213354   MPKI: 0.39504
L1I LOAD      NON_SPEC    ACCESS:   37031480  HIT:   36952472  MISS:      79008  HIT %:    99.7866  MISS %:   0.213354   MPKI: 0.39504
L1I PREFETCH  REQUESTED:          0  ISSUED:          0  USEFUL:          0  USELESS:          0
L1I USEFUL LOAD PREFETCHES:          0 PREFETCH ISSUED TO LOWER LEVEL:          0  ACCURACY: -nan
L1I TIMELY PREFETCHES:          0 LATE PREFETCHES: 0 DROPPED PREFETCHES: 0
L1I COMMIT LATE PREFETCHES: 0 MISSED OPPORTUNITY: 0 LATE IN PQ: 0 UNCOVERED: 0
L1I COMMIT LATE MSHR PREFETCHES: 0
L1I MPKI TOTAL: 0.54565 MSHR LATE: 0 PQ LATE: 0 COMMIT LATE: 0 MISSED OPPORTUNITY: 0 UNCOVERED: 0
L1I PREFETCHES SAME FILL-ORIGIN LEVEL: 0 DIFFERENT FILL-ORIGIN LEVEL: 0
L1I AVERAGE MISS LATENCY: 26.3191 cycles
L1I AVERAGE MISS LATENCY LOAD: 26.3191 cycles
L1I AVERAGE MISS LATENCY PREFETCH: -nan cycles
L1I AVERAGE MSHR OCCUPANCY: 0.0032861
L1I MSHR FULL: 0
L1I RQ	ACCESS:   56948778	FORWARD:          0	MERGED:   19887177	TO_CACHE:   37061601

BTB SPEC fills:          0  NON-SPEC fills:          0
BTB Test counter :          0
BTB Leapfrog:          0
BTB MSHR merge:          0
BTB TOTAL     ACCESS:   32188164  HIT:   30296058  MISS:    1892106  HIT %:    94.1217  MISS %:    5.87827   MPKI: 9.46053
BTB BRANCH_DIRECT_JUMP	ACCESS:    2276304  HIT:    2276179  MISS:        125
BTB BRANCH_INDIRECT	ACCESS:     671328  HIT:     585871  MISS:      85457
BTB BRANCH_CONDITIONAL	ACCESS:   17350102  HIT:   17349618  MISS:        484
BTB BRANCH_DIRECT_CALL	ACCESS:    3559126  HIT:    3558870  MISS:        256
BTB BRANCH_INDIRECT_CALL	ACCESS:    2386088  HIT:    2378106  MISS:       7982
BTB BRANCH_RETURN	ACCESS:    5945216  HIT:    4147414  MISS:    1797802
BTB BRANCH_OTHER ACCESS:          0  HIT:          0  MISS:          0

L2C SPEC fills:          0  NON-SPEC fills:     374190
L2C Test counter :          0
L2C Leapfrog:          0
L2C MSHR merge:          0
L2C TOTAL     ACCESS:   11100353  HIT:    6237879  MISS:    4862474  HIT %:    56.1953  MISS %:    43.8047   MPKI: 24.3124
L2C LOAD      TOTAL       ACCESS:    3360873  HIT:    1157293  MISS:    2203580  HIT %:    34.4343  MISS %:    65.5657   MPKI: 11.0179
L2C LOAD      NON_SPEC    ACCESS:     702268  HIT:     315397  MISS:     386871  HIT %:    44.9112  MISS %:    55.0888   MPKI: 1.93436
L2C LOAD      SPEC        ACCESS:    2658605  HIT:     841896  MISS:    1816709  HIT %:    31.6668  MISS %:    68.3332   MPKI: 9.08355
L2C RFO       NON_SPEC    ACCESS:     479504  HIT:     147633  MISS:     331871  HIT %:    30.7887  MISS %:    69.2113   MPKI: 1.65935
L2C PREFETCH  NON_SPEC    ACCESS:      98675  HIT:      34075  MISS:      64600  HIT %:    34.5326  MISS %:    65.4674   MPKI: 0.323
L2C WRITEBACK NON_SPEC    ACCESS:     693288  HIT:     692102  MISS:       1186  HIT %:    99.8289  MISS %:   0.171069   MPKI: 0.00593
L2C CLEAN_EVICTION NON_SPEC    ACCESS:    2183288  HIT:     378351  MISS:    1804937  HIT %:    17.3294  MISS %:    82.6706   MPKI: 9.02468
L2C COMMIT LOAD NON_SPEC    ACCESS:      13510  HIT:       7439  MISS:       6071  HIT %:    55.0629  MISS %:    44.9371   MPKI: 0.030355
L2C LOAD TRANSLATION NON_SPEC    ACCESS:    4271205  HIT:    3820984  MISS:     450221  HIT %:    89.4592  MISS %:    10.5408   MPKI: 2.2511
L2C TRANSLATION FROM L1D PREFETCHER NON_SPEC    ACCESS:         10  HIT:          2  MISS:          8  HIT %:         20  MISS %:         80   MPKI: 4e-05
L2C PREFETCH  REQUESTED:          0  ISSUED:          0  USEFUL:       3523  USELESS:      61092
L2C USEFUL LOAD PREFETCHES:       3523 PREFETCH ISSUED TO LOWER LEVEL:      64600  ACCURACY: 5.45356
L2C TIMELY PREFETCHES:       3523 LATE PREFETCHES: 0 DROPPED PREFETCHES: 0
L2C COMMIT LATE PREFETCHES: 0 MISSED OPPORTUNITY: 0 LATE IN PQ: 0 UNCOVERED: 0
L2C COMMIT LATE MSHR PREFETCHES: 0
L2C MPKI TOTAL: 11.0179 MSHR LATE: 0 PQ LATE: 0 COMMIT LATE: 0 MISSED OPPORTUNITY: 0 UNCOVERED: 0
L2C PREFETCHES SAME FILL-ORIGIN LEVEL: 781 DIFFERENT FILL-ORIGIN LEVEL: 0
L2C AVERAGE MISS LATENCY: 77.0437 cycles
L2C AVERAGE MISS LATENCY LOAD: 130.508 cycles
L2C AVERAGE MISS LATENCY PREFETCH: 160.309 cycles
L2C AVERAGE MSHR OCCUPANCY: 0.340216
L2C MSHR FULL: 0
L2C RQ	ACCESS:    8125255	FORWARD:          0	MERGED:          0	TO_CACHE:    8125102
L2C WQ	ACCESS:    2876578	FORWARD:        155	MERGED:          0	TO_CACHE:    2876578
L2C PQ	ACCESS:      98677	FORWARD:          0	MERGED:          0	TO_CACHE:      98675

L2C Instructions Evicting Data 10524
L2C Translations Evicting Data 380575
L2C Data Evicting Data 658184
L2C Instructions Evicting Instructions 661
L2C Translations Evicting Instructions 1582
L2C Data Evicting Instructions 3250
L2C Instructions Evicting Translations 1496
L2C Translations Evicting Translations 68072
L2C Data Evicting Translations 115298
L2C Dense regions hint from L2: 0
PSCL5 SPEC fills:          0  NON-SPEC fills:          0
PSCL5 Test counter :          0
PSCL5 Leapfrog:          0
PSCL5 MSHR merge:          0
PSCL5 TOTAL     ACCESS:          0  HIT:          0  MISS:          0  HIT %:       -nan  MISS %:       -nan   MPKI: 0
PSCL5 PREFETCH  REQUESTED:          0  ISSUED:          0  USEFUL:          0  USELESS:          0
PSCL5 USEFUL LOAD PREFETCHES:          0 PREFETCH ISSUED TO LOWER LEVEL:          0  ACCURACY: -nan
PSCL5 TIMELY PREFETCHES:          0 LATE PREFETCHES: 0 DROPPED PREFETCHES: 0
PSCL5 COMMIT LATE PREFETCHES: 0 MISSED OPPORTUNITY: 0 LATE IN PQ: 0 UNCOVERED: 0
PSCL5 COMMIT LATE MSHR PREFETCHES: 0
PSCL5 MPKI TOTAL: 0 MSHR LATE: 0 PQ LATE: 0 COMMIT LATE: 0 MISSED OPPORTUNITY: 0 UNCOVERED: 0
PSCL5 PREFETCHES SAME FILL-ORIGIN LEVEL: 0 DIFFERENT FILL-ORIGIN LEVEL: 0

PSCL4 SPEC fills:          0  NON-SPEC fills:          0
PSCL4 Test counter :          0
PSCL4 Leapfrog:          0
PSCL4 MSHR merge:          0
PSCL4 TOTAL     ACCESS:          0  HIT:          0  MISS:          0  HIT %:       -nan  MISS %:       -nan   MPKI: 0
PSCL4 PREFETCH  REQUESTED:          0  ISSUED:          0  USEFUL:          0  USELESS:          0
PSCL4 USEFUL LOAD PREFETCHES:          0 PREFETCH ISSUED TO LOWER LEVEL:          0  ACCURACY: -nan
PSCL4 TIMELY PREFETCHES:          0 LATE PREFETCHES: 0 DROPPED PREFETCHES: 0
PSCL4 COMMIT LATE PREFETCHES: 0 MISSED OPPORTUNITY: 0 LATE IN PQ: 0 UNCOVERED: 0
PSCL4 COMMIT LATE MSHR PREFETCHES: 0
PSCL4 MPKI TOTAL: 0 MSHR LATE: 0 PQ LATE: 0 COMMIT LATE: 0 MISSED OPPORTUNITY: 0 UNCOVERED: 0
PSCL4 PREFETCHES SAME FILL-ORIGIN LEVEL: 0 DIFFERENT FILL-ORIGIN LEVEL: 0

PSCL3 SPEC fills:          0  NON-SPEC fills:          0
PSCL3 Test counter :          0
PSCL3 Leapfrog:          0
PSCL3 MSHR merge:          0
PSCL3 TOTAL     ACCESS:          0  HIT:          0  MISS:          0  HIT %:       -nan  MISS %:       -nan   MPKI: 0
PSCL3 PREFETCH  REQUESTED:          0  ISSUED:          0  USEFUL:          0  USELESS:          0
PSCL3 USEFUL LOAD PREFETCHES:          0 PREFETCH ISSUED TO LOWER LEVEL:          0  ACCURACY: -nan
PSCL3 TIMELY PREFETCHES:          0 LATE PREFETCHES: 0 DROPPED PREFETCHES: 0
PSCL3 COMMIT LATE PREFETCHES: 0 MISSED OPPORTUNITY: 0 LATE IN PQ: 0 UNCOVERED: 0
PSCL3 COMMIT LATE MSHR PREFETCHES: 0
PSCL3 MPKI TOTAL: 0 MSHR LATE: 0 PQ LATE: 0 COMMIT LATE: 0 MISSED OPPORTUNITY: 0 UNCOVERED: 0
PSCL3 PREFETCHES SAME FILL-ORIGIN LEVEL: 0 DIFFERENT FILL-ORIGIN LEVEL: 0

PSCL2 SPEC fills:          0  NON-SPEC fills:          0
PSCL2 Test counter :          0
PSCL2 Leapfrog:          0
PSCL2 MSHR merge:          0
PSCL2 TOTAL     ACCESS:          0  HIT:          0  MISS:          0  HIT %:       -nan  MISS %:       -nan   MPKI: 0
PSCL2 PREFETCH  REQUESTED:          0  ISSUED:          0  USEFUL:          0  USELESS:          0
PSCL2 USEFUL LOAD PREFETCHES:          0 PREFETCH ISSUED TO LOWER LEVEL:          0  ACCURACY: -nan
PSCL2 TIMELY PREFETCHES:          0 LATE PREFETCHES: 0 DROPPED PREFETCHES: 0
PSCL2 COMMIT LATE PREFETCHES: 0 MISSED OPPORTUNITY: 0 LATE IN PQ: 0 UNCOVERED: 0
PSCL2 COMMIT LATE MSHR PREFETCHES: 0
PSCL2 MPKI TOTAL: 0 MSHR LATE: 0 PQ LATE: 0 COMMIT LATE: 0 MISSED OPPORTUNITY: 0 UNCOVERED: 0
PSCL2 PREFETCHES SAME FILL-ORIGIN LEVEL: 0 DIFFERENT FILL-ORIGIN LEVEL: 0

LLC SPEC fills:          0  NON-SPEC fills:     248238
LLC Test counter :          0
LLC Leapfrog:          0
LLC MSHR merge:          0
LLC TOTAL     ACCESS:    5333808  HIT:    1940450  MISS:    3393358  HIT %:    36.3802  MISS %:    63.6198   MPKI: 16.9668
LLC LOAD      TOTAL       ACCESS:    2203576  HIT:     570069  MISS:    1633507  HIT %:    25.8702  MISS %:    74.1298   MPKI: 8.16754
LLC LOAD      NON_SPEC    ACCESS:     386870  HIT:     135192  MISS:     251678  HIT %:    34.9451  MISS %:    65.0549   MPKI: 1.25839
LLC LOAD      SPEC        ACCESS:    1816706  HIT:     434877  MISS:    1381829  HIT %:    23.9377  MISS %:    76.0623   MPKI: 6.90914
LLC RFO       NON_SPEC    ACCESS:     331870  HIT:     165661  MISS:     166209  HIT %:    49.9174  MISS %:    50.0826   MPKI: 0.831045
LLC PREFETCH  NON_SPEC    ACCESS:      64600  HIT:      13650  MISS:      50950  HIT %:      21.13  MISS %:      78.87   MPKI: 0.25475
LLC WRITEBACK NON_SPEC    ACCESS:     458574  HIT:     457311  MISS:       1263  HIT %:    99.7246  MISS %:   0.275419   MPKI: 0.006315
LLC CLEAN_EVICTION NON_SPEC    ACCESS:    1818888  HIT:     422475  MISS:    1396413  HIT %:    23.2271  MISS %:    76.7729   MPKI: 6.98207
LLC COMMIT LOAD NON_SPEC    ACCESS:       6071  HIT:       3416  MISS:       2655  HIT %:    56.2675  MISS %:    43.7325   MPKI: 0.013275
LLC LOAD TRANSLATION NON_SPEC    ACCESS:     450221  HIT:     307868  MISS:     142353  HIT %:    68.3815  MISS %:    31.6185   MPKI: 0.711765
LLC TRANSLATION FROM L1D PREFETCHER NON_SPEC    ACCESS:          8  HIT:          0  MISS:          8  HIT %:          0  MISS %:        100   MPKI: 4e-05
LLC PREFETCH  REQUESTED:          0  ISSUED:          0  USEFUL:       1145  USELESS:      49673
LLC USEFUL LOAD PREFETCHES:       1145 PREFETCH ISSUED TO LOWER LEVEL:      50950  ACCURACY: 2.2473
LLC TIMELY PREFETCHES:       1145 LATE PREFETCHES: 0 DROPPED PREFETCHES: 0
LLC COMMIT LATE PREFETCHES: 0 MISSED OPPORTUNITY: 0 LATE IN PQ: 0 UNCOVERED: 0
LLC COMMIT LATE MSHR PREFETCHES: 0
LLC MPKI TOTAL: 8.16754 MSHR LATE: 0 PQ LATE: 0 COMMIT LATE: 0 MISSED OPPORTUNITY: 0 UNCOVERED: 0
LLC PREFETCHES SAME FILL-ORIGIN LEVEL: 0 DIFFERENT FILL-ORIGIN LEVEL: 0
LLC AVERAGE MISS LATENCY: 88.1932 cycles
LLC AVERAGE MISS LATENCY LOAD: 145.587 cycles
LLC AVERAGE MISS LATENCY PREFETCH: 165.219 cycles
LLC AVERAGE MSHR OCCUPANCY: 0.363014
LLC MSHR FULL: 0
LLC RQ	ACCESS:    2991751	FORWARD:          0	MERGED:          0	TO_CACHE:    2991746
LLC WQ	ACCESS:    2277462	FORWARD:          5	MERGED:          0	TO_CACHE:    2277462
LLC PQ	ACCESS:      64600	FORWARD:          0	MERGED:          0	TO_CACHE:      64600

LLC Dense regions hint to LLC: 0

RAW hits: 3210284
Loads Generated: 67448749
Loads sent to L1D: 64238465
Stores Generated: 37118330
Stores sent to L1D: 37118330
Major fault: 0 Minor fault: 47401
Allocated PAGES: 47401
Total Load insts: 79565631
Total Non-spec loads: 28084604
Percentage of speculative loads: 64.7026

LeapFrogging counter: 1400
Commit hits: 22785595 miss: 16845851
Commit hit %: 57.4937 miss %: 42.5063
Commits not translated: 0
Loads retired: 3282057
Stores retired: 37118330
Cache fills: 3282059
L1D response latency: 99.1907 cycles
Load retirement latency: 179.777 cycles
OOO test counter: 0
Discarded buffer inserts: 22785595 hits: 19795 hit %: 0.0868751
Filter prediction accuracy: 99.9766
Speculative prefetch buffer size: 0
CPU 0 L1D PC-based stride prefetcher final stats
Degree: 3

DRAM Statistics
 CHANNEL 0
 RQ ROW_BUFFER_HIT:     187293  ROW_BUFFER_MISS:    1808371
 DBUS_CONGESTED:        865
 WQ ROW_BUFFER_HIT:     291619  ROW_BUFFER_MISS:    1376787  FULL:          0

 AVG_CONGESTED_CYCLE: 3
 All warmup complete: 2
Channel 0 Bank busy for read cycles: 0
Channel 0 Bank busy for write cycles: 0
Channel 0
Rank 0
0banks busy for read cycles: 398589020
0banks busy for write cycles: 725240
1banks busy for read cycles: 163459309
1banks busy for write cycles: 118635383
2banks busy for read cycles: 35660987
2banks busy for write cycles: 48150738
3banks busy for read cycles: 9720291
3banks busy for write cycles: 18131594
4banks busy for read cycles: 3565141
4banks busy for write cycles: 6480731
5banks busy for read cycles: 223395
5banks busy for write cycles: 2390889
6banks busy for read cycles: 77562
6banks busy for write cycles: 907941
7banks busy for read cycles: 51778
7banks busy for write cycles: 321552
8banks busy for read cycles: 59534
8banks busy for write cycles: 148010

CPU 0 Branch Prediction Accuracy: 98.2082% MPKI: 3.72743 Average ROB Occupancy at Mispredict: 33.8463
Branch types
NOT_BRANCH: 158393545 79.1968%
BRANCH_DIRECT_JUMP: 2276304 1.13815%
BRANCH_INDIRECT: 671328 0.335664%
BRANCH_CONDITIONAL: 26768026 13.384%
BRANCH_DIRECT_CALL: 3559126 1.77956%
BRANCH_INDIRECT_CALL: 2386088 1.19304%
BRANCH_RETURN: 5945216 2.97261%
BRANCH_OTHER: 0 0%

DRAM PAGES: 1048576
Allocated PAGES: 47401
