
*** ChampSim Multicore Out-of-Order Simulator ***

Warmup Instructions: 50000000
Simulation Instructions: 200000000
Number of CPUs: 1
LLC sets: 2048
LLC ways: 16
L0D sets: 16
L0D ways: 2
ROB size: 352
LQ size: 128
SQ size: 72
Secure Berti: OFF
Berti: OFF
Berti Fill: OFF
On commit prefetching: OFF
Hit-based filter: ON
Time-guarding: ON
Free-slotting: ON
Leap-frogging: ON
Train prefetcher on L0D bypass: OFF
No translation penalty for prefetchers: OFF
Prefetch to L0D only: OFF
Prefetch to L1D only: OFF
Clean evictions: ON
Commit loads: ON
Commit write: ON
Fill commit loads to L2C, LLC: ON
DRAM IO FREQUENCY: 6400
ROB SIZE: 352
Off-chip DRAM Size: 4096 MB Channels: 1 Width: 64-bit Data Rate: 6400 MT/s
CPU 0 runs /home/sumon/secure_berti/GhostMinion/../../traces/spec/623.xalancbmk_s-10B.champsimtrace.xz
.xz
BTB has LRU replacement policy
ITLB has LRU replacement policy
DTLB has LRU replacement policy
STLB has LRU replacement policy
L1I has LRU replacement policy
L0D has LRU replacement policy
CPU 0 L1D IP-based stride prefetcher
L1D has LRU replacement policy
L2C has LRU replacement policy
LLC has LRU replacement policy
Heartbeat CPU 0 instructions: 10000003 cycles: 5019389 heartbeat IPC: 1.99227 cumulative IPC: 1.99227 (Simulation time: 0 hr 0 min 34 sec) 
Heartbeat CPU 0 instructions: 20000000 cycles: 10114683 heartbeat IPC: 1.96259 cumulative IPC: 1.97732 (Simulation time: 0 hr 1 min 10 sec) 
Heartbeat CPU 0 instructions: 30000001 cycles: 15275180 heartbeat IPC: 1.9378 cumulative IPC: 1.96397 (Simulation time: 0 hr 1 min 45 sec) 
Heartbeat CPU 0 instructions: 40000000 cycles: 20394424 heartbeat IPC: 1.95341 cumulative IPC: 1.96132 (Simulation time: 0 hr 2 min 20 sec) 
Heartbeat CPU 0 instructions: 50000000 cycles: 25776051 heartbeat IPC: 1.85817 cumulative IPC: 1.93979 (Simulation time: 0 hr 2 min 56 sec) 

Warmup complete CPU 0 instructions: 50000002 cycles: 25776056 (Simulation time: 0 hr 2 min 56 sec) 

Heartbeat CPU 0 instructions: 60000002 cycles: 64043219 heartbeat IPC: 0.261321 cumulative IPC: 0.261321 (Simulation time: 0 hr 3 min 58 sec) 
Heartbeat CPU 0 instructions: 70000000 cycles: 101625831 heartbeat IPC: 0.26608 cumulative IPC: 0.263679 (Simulation time: 0 hr 5 min 1 sec) 
Heartbeat CPU 0 instructions: 80000003 cycles: 139965048 heartbeat IPC: 0.26083 cumulative IPC: 0.262722 (Simulation time: 0 hr 6 min 6 sec) 
Heartbeat CPU 0 instructions: 90000002 cycles: 175028869 heartbeat IPC: 0.285194 cumulative IPC: 0.268002 (Simulation time: 0 hr 7 min 8 sec) 
Heartbeat CPU 0 instructions: 100000003 cycles: 213293566 heartbeat IPC: 0.261338 cumulative IPC: 0.266642 (Simulation time: 0 hr 8 min 13 sec) 
Heartbeat CPU 0 instructions: 110000000 cycles: 245558447 heartbeat IPC: 0.309934 cumulative IPC: 0.272997 (Simulation time: 0 hr 9 min 13 sec) 
Heartbeat CPU 0 instructions: 120000001 cycles: 279499185 heartbeat IPC: 0.294631 cumulative IPC: 0.275891 (Simulation time: 0 hr 10 min 14 sec) 
Heartbeat CPU 0 instructions: 130000000 cycles: 320211562 heartbeat IPC: 0.245626 cumulative IPC: 0.271706 (Simulation time: 0 hr 11 min 23 sec) 
Heartbeat CPU 0 instructions: 140000003 cycles: 359337036 heartbeat IPC: 0.255588 cumulative IPC: 0.269816 (Simulation time: 0 hr 12 min 29 sec) 
Heartbeat CPU 0 instructions: 150000003 cycles: 390540322 heartbeat IPC: 0.320479 cumulative IPC: 0.27415 (Simulation time: 0 hr 13 min 23 sec) 
Heartbeat CPU 0 instructions: 160000001 cycles: 430466213 heartbeat IPC: 0.250464 cumulative IPC: 0.271813 (Simulation time: 0 hr 14 min 24 sec) 
Heartbeat CPU 0 instructions: 170000001 cycles: 466410293 heartbeat IPC: 0.27821 cumulative IPC: 0.272335 (Simulation time: 0 hr 15 min 15 sec) 
Heartbeat CPU 0 instructions: 180000002 cycles: 500534055 heartbeat IPC: 0.293051 cumulative IPC: 0.273824 (Simulation time: 0 hr 16 min 4 sec) 
Heartbeat CPU 0 instructions: 190000001 cycles: 534604420 heartbeat IPC: 0.29351 cumulative IPC: 0.275142 (Simulation time: 0 hr 16 min 52 sec) 
Heartbeat CPU 0 instructions: 200000000 cycles: 570382212 heartbeat IPC: 0.279503 cumulative IPC: 0.275428 (Simulation time: 0 hr 17 min 41 sec) 
Heartbeat CPU 0 instructions: 210000002 cycles: 608187002 heartbeat IPC: 0.264517 cumulative IPC: 0.27472 (Simulation time: 0 hr 18 min 32 sec) 
Heartbeat CPU 0 instructions: 220000000 cycles: 645661829 heartbeat IPC: 0.266846 cumulative IPC: 0.274244 (Simulation time: 0 hr 19 min 22 sec) 
Heartbeat CPU 0 instructions: 230000002 cycles: 679824756 heartbeat IPC: 0.292715 cumulative IPC: 0.275209 (Simulation time: 0 hr 20 min 9 sec) 
Heartbeat CPU 0 instructions: 240000002 cycles: 718811318 heartbeat IPC: 0.256499 cumulative IPC: 0.274156 (Simulation time: 0 hr 20 min 59 sec) 
Heartbeat CPU 0 instructions: 250000003 cycles: 756824035 heartbeat IPC: 0.26307 cumulative IPC: 0.27358 (Simulation time: 0 hr 21 min 49 sec) 
Finished CPU 0 instructions: 200000001 cycles: 731047979 cumulative IPC: 0.27358 (Simulation time: 0 hr 21 min 49 sec) 
 Instruction ID: 250000384

ChampSim completed all CPUs

Region of Interest Statistics

CPU 0 cumulative IPC: 0.27358 instructions: 200000001 cycles: 731047979
ITLB SPEC fills:          0  NON-SPEC fills:          0
ITLB Test counter :          0
ITLB Leapfrog:          0
ITLB MSHR merge:          0
ITLB TOTAL     ACCESS:   32846486  HIT:   32714889  MISS:     131597  HIT %:    99.5994  MISS %:   0.400643   MPKI: 0.657985
ITLB LOAD TRANSLATION NON_SPEC    ACCESS:   32846486  HIT:   32714889  MISS:     131597  HIT %:    99.5994  MISS %:   0.400643   MPKI: 0.657985
ITLB PREFETCH  REQUESTED:          0  ISSUED:          0  USEFUL:          0  USELESS:          0
ITLB USEFUL LOAD PREFETCHES:          0 PREFETCH ISSUED TO LOWER LEVEL:          0  ACCURACY: -nan
ITLB TIMELY PREFETCHES:          0 LATE PREFETCHES: 0 DROPPED PREFETCHES: 0
ITLB COMMIT LATE PREFETCHES: 0 MISSED OPPORTUNITY: 0 LATE IN PQ: 0 UNCOVERED: 0
ITLB COMMIT LATE MSHR PREFETCHES: 0
ITLB MPKI TOTAL: 0 MSHR LATE: 0 PQ LATE: 0 COMMIT LATE: 0 MISSED OPPORTUNITY: 0 UNCOVERED: 0
ITLB PREFETCHES SAME FILL-ORIGIN LEVEL: 0 DIFFERENT FILL-ORIGIN LEVEL: 0
ITLB AVERAGE MISS LATENCY: 22.4219 cycles
ITLB AVERAGE MISS LATENCY LOAD: -nan cycles
ITLB AVERAGE MISS LATENCY PREFETCH: -nan cycles
ITLB AVERAGE MSHR OCCUPANCY: 0.00212829
ITLB MSHR FULL: 0
ITLB RQ	ACCESS:   38642055	FORWARD:          0	MERGED:    5762136	TO_CACHE:   32879919

DTLB SPEC fills:          0  NON-SPEC fills:          0
DTLB Test counter :          0
DTLB Leapfrog:          0
DTLB MSHR merge:          0
DTLB TOTAL     ACCESS:   43915943  HIT:   42597195  MISS:    1318748  HIT %:    96.9971  MISS %:    3.00289   MPKI: 6.59374
DTLB LOAD TRANSLATION NON_SPEC    ACCESS:   43915943  HIT:   42597195  MISS:    1318748  HIT %:    96.9971  MISS %:    3.00289   MPKI: 6.59374
DTLB PREFETCH  REQUESTED:          0  ISSUED:          0  USEFUL:          0  USELESS:          0
DTLB USEFUL LOAD PREFETCHES:          0 PREFETCH ISSUED TO LOWER LEVEL:          0  ACCURACY: -nan
DTLB TIMELY PREFETCHES:          0 LATE PREFETCHES: 0 DROPPED PREFETCHES: 0
DTLB COMMIT LATE PREFETCHES: 0 MISSED OPPORTUNITY: 0 LATE IN PQ: 0 UNCOVERED: 0
DTLB COMMIT LATE MSHR PREFETCHES: 0
DTLB MPKI TOTAL: 0 MSHR LATE: 0 PQ LATE: 0 COMMIT LATE: 0 MISSED OPPORTUNITY: 0 UNCOVERED: 0
DTLB PREFETCHES SAME FILL-ORIGIN LEVEL: 0 DIFFERENT FILL-ORIGIN LEVEL: 0
DTLB AVERAGE MISS LATENCY: 105.018 cycles
DTLB AVERAGE MISS LATENCY LOAD: -nan cycles
DTLB AVERAGE MISS LATENCY PREFETCH: -nan cycles
DTLB AVERAGE MSHR OCCUPANCY: 0.0512702
DTLB MSHR FULL: 0
DTLB RQ	ACCESS:   49095091	FORWARD:          0	MERGED:    4920436	TO_CACHE:   44174655

STLB SPEC fills:          0  NON-SPEC fills:          0
STLB Test counter :          0
STLB Leapfrog:          0
STLB MSHR merge:          0
STLB TOTAL     ACCESS:    1757823  HIT:     793873  MISS:     963950  HIT %:    45.1623  MISS %:    54.8377   MPKI: 4.81975
STLB LOAD TRANSLATION NON_SPEC    ACCESS:    1450345  HIT:     486488  MISS:     963857  HIT %:    33.5429  MISS %:    66.4571   MPKI: 4.81928
STLB TRANSLATION FROM L1D PREFETCHER NON_SPEC    ACCESS:     307478  HIT:     307385  MISS:         93  HIT %:    99.9698  MISS %:  0.0302461   MPKI: 0.000465
STLB PREFETCH  REQUESTED:          0  ISSUED:          0  USEFUL:         93  USELESS:          0
STLB USEFUL LOAD PREFETCHES:         93 PREFETCH ISSUED TO LOWER LEVEL:          0  ACCURACY: inf
STLB TIMELY PREFETCHES:         93 LATE PREFETCHES: 0 DROPPED PREFETCHES: 0
STLB COMMIT LATE PREFETCHES: 0 MISSED OPPORTUNITY: 0 LATE IN PQ: 0 UNCOVERED: 0
STLB COMMIT LATE MSHR PREFETCHES: 0
STLB MPKI TOTAL: 0 MSHR LATE: 0 PQ LATE: 0 COMMIT LATE: 0 MISSED OPPORTUNITY: 0 UNCOVERED: 0
STLB PREFETCHES SAME FILL-ORIGIN LEVEL: 0 DIFFERENT FILL-ORIGIN LEVEL: 0
STLB AVERAGE MISS LATENCY: 133.217 cycles
STLB AVERAGE MISS LATENCY LOAD: -nan cycles
STLB AVERAGE MISS LATENCY PREFETCH: -nan cycles
STLB AVERAGE MSHR OCCUPANCY: 0.108027
STLB MSHR FULL: 0
STLB RQ	ACCESS:    2390070	FORWARD:          0	MERGED:     632178	TO_CACHE:    1757892

STLB Hit, L1D data hit: 0
STLB Hit, L2C data hit: 0
STLB Hit, LLC data hit: 0
STLB Hit, LLC data miss: 0
STLB STLB hints to L2: 0
L0D SPEC fills:   18437183  NON-SPEC fills:          0
L0D TimeGuard Request with older TS:     144313 Restricted eviction:      47844 read:      55790
L0D Test counter :          0
L0D Leapfrog:          0
L0D MSHR merge:    2956568
L0D TOTAL     ACCESS:   36232098  HIT:    7128274  MISS:   29103824  HIT %:    19.6739  MISS %:    80.3261   MPKI: 145.519
L0D LOAD      TOTAL       ACCESS:   36232098  HIT:    7128274  MISS:   29103824  HIT %:    19.6739  MISS %:    80.3261   MPKI: 145.519
L0D LOAD      NON_SPEC    ACCESS:   10671262  HIT:      52416  MISS:   10618846  HIT %:   0.491188  MISS %:    99.5088   MPKI: 53.0942
L0D LOAD      SPEC        ACCESS:   25560836  HIT:    7075858  MISS:   18484978  HIT %:    27.6824  MISS %:    72.3176   MPKI: 92.4249
L0D PREFETCH  REQUESTED:          0  ISSUED:          0  USEFUL:          0  USELESS:          0
L0D USEFUL LOAD PREFETCHES:          0 PREFETCH ISSUED TO LOWER LEVEL:          0  ACCURACY: -nan
L0D TIMELY PREFETCHES:          0 LATE PREFETCHES: 0 DROPPED PREFETCHES: 0
L0D COMMIT LATE PREFETCHES: 0 MISSED OPPORTUNITY: 0 LATE IN PQ: 0 UNCOVERED: 0
L0D COMMIT LATE MSHR PREFETCHES: 0
L0D MPKI TOTAL: 160.302 MSHR LATE: 0 PQ LATE: 0 COMMIT LATE: 0 MISSED OPPORTUNITY: 0 UNCOVERED: 0
L0D PREFETCHES SAME FILL-ORIGIN LEVEL: 0 DIFFERENT FILL-ORIGIN LEVEL: 0
L0D AVERAGE MISS LATENCY: 29.626 cycles
L0D AVERAGE MISS LATENCY LOAD: 29.626 cycles
L0D AVERAGE MISS LATENCY PREFETCH: -nan cycles
L0D AVERAGE MSHR OCCUPANCY: 0.736625
L0D MSHR FULL: 0.00218775
L0D RQ	ACCESS:   58698169	FORWARD:          0	MERGED:   19509502	TO_CACHE:   39188667
L0D WQ	ACCESS:    9906424	FORWARD:          0	MERGED:          0	TO_CACHE:    9906424

L1D SPEC fills:          0  NON-SPEC fills:    1805663
L1D Test counter :          0
L1D Leapfrog:          0
L1D MSHR merge:       9438
L1D TOTAL     ACCESS:   47062943  HIT:   38212635  MISS:    8850308  HIT %:    81.1947  MISS %:    18.8053   MPKI: 44.2515
L1D LOAD      TOTAL       ACCESS:   29097721  HIT:   23930106  MISS:    5167615  HIT %:    82.2405  MISS %:    17.7595   MPKI: 25.8381
L1D LOAD      NON_SPEC    ACCESS:   10615480  HIT:    8809817  MISS:    1805663  HIT %:    82.9903  MISS %:    17.0097   MPKI: 9.02831
L1D LOAD      SPEC        ACCESS:   18482241  HIT:   15120289  MISS:    3361952  HIT %:    81.8098  MISS %:    18.1902   MPKI: 16.8098
L1D RFO       NON_SPEC    ACCESS:    9619190  HIT:    9543083  MISS:      76107  HIT %:    99.2088  MISS %:     0.7912   MPKI: 0.380535
L1D PREFETCH  NON_SPEC    ACCESS:     917354  HIT:     612712  MISS:     304642  HIT %:    66.7912  MISS %:    33.2088   MPKI: 1.52321
L1D COMMIT LOAD NON_SPEC    ACCESS:    4001076  HIT:    3991783  MISS:       9293  HIT %:    99.7677  MISS %:   0.232263   MPKI: 0.046465
L1D COMMIT WRITE NON_SPEC    ACCESS:    3427602  HIT:     134951  MISS:    3292651  HIT %:    3.93718  MISS %:    96.0628   MPKI: 16.4633
L1D PREFETCH  REQUESTED:     962166  ISSUED:     960116  USEFUL:     186846  USELESS:     117818
L1D USEFUL LOAD PREFETCHES:     186846 PREFETCH ISSUED TO LOWER LEVEL:     319045  ACCURACY: 58.5642
L1D TIMELY PREFETCHES:     186846 LATE PREFETCHES: 3336 DROPPED PREFETCHES: 0
L1D COMMIT LATE PREFETCHES: 0 MISSED OPPORTUNITY: 0 LATE IN PQ: 0 UNCOVERED: 0
L1D COMMIT LATE MSHR PREFETCHES: 0
L1D MPKI TOTAL: 25.8686 MSHR LATE: 0.01668 PQ LATE: 0 COMMIT LATE: 0 MISSED OPPORTUNITY: 0 UNCOVERED: 0
L1D PREFETCHES SAME FILL-ORIGIN LEVEL: 308438 DIFFERENT FILL-ORIGIN LEVEL: 10607
L1D AVERAGE MISS LATENCY: 87.1736 cycles
L1D AVERAGE MISS LATENCY LOAD: 138.217 cycles
L1D AVERAGE MISS LATENCY PREFETCH: 153.759 cycles
L1D AVERAGE MSHR OCCUPANCY: 0.338315
L1D MSHR FULL: 9.93215e-05
L1D RQ	ACCESS:   37991152	FORWARD:          0	MERGED:    4872884	TO_CACHE:   33112058
L1D WQ	ACCESS:   13326250	FORWARD:       6210	MERGED:      53212	TO_CACHE:   13273038
L1D PQ	ACCESS:     960116	FORWARD:          0	MERGED:      20391	TO_CACHE:     939725

L1D UNIQUE REGIONS ACCESSED: 0
L1D REGIONS CONFLICTS: 0
L1D Cross Page Prefetch Requests: 0
L1D Same Page Prefetch Requests: 1169668
L1D ROI Sum of L1D PQ occupancy: 12954046
L1D PREFETCHES PUSHED FROM L2C: 0
L1I SPEC fills:          0  NON-SPEC fills:          0
L1I Test counter :          0
L1I Leapfrog:          0
L1I MSHR merge:     220150
L1I TOTAL     ACCESS:   38421904  HIT:   37708252  MISS:     713652  HIT %:    98.1426  MISS %:    1.85741   MPKI: 3.56826
L1I LOAD      TOTAL       ACCESS:   38421904  HIT:   37708252  MISS:     713652  HIT %:    98.1426  MISS %:    1.85741   MPKI: 3.56826
L1I LOAD      NON_SPEC    ACCESS:   38421904  HIT:   37708252  MISS:     713652  HIT %:    98.1426  MISS %:    1.85741   MPKI: 3.56826
L1I PREFETCH  REQUESTED:          0  ISSUED:          0  USEFUL:          0  USELESS:          0
L1I USEFUL LOAD PREFETCHES:          0 PREFETCH ISSUED TO LOWER LEVEL:          0  ACCURACY: -nan
L1I TIMELY PREFETCHES:          0 LATE PREFETCHES: 0 DROPPED PREFETCHES: 0
L1I COMMIT LATE PREFETCHES: 0 MISSED OPPORTUNITY: 0 LATE IN PQ: 0 UNCOVERED: 0
L1I COMMIT LATE MSHR PREFETCHES: 0
L1I MPKI TOTAL: 4.66901 MSHR LATE: 0 PQ LATE: 0 COMMIT LATE: 0 MISSED OPPORTUNITY: 0 UNCOVERED: 0
L1I PREFETCHES SAME FILL-ORIGIN LEVEL: 0 DIFFERENT FILL-ORIGIN LEVEL: 0
L1I AVERAGE MISS LATENCY: 40.5055 cycles
L1I AVERAGE MISS LATENCY LOAD: 40.5055 cycles
L1I AVERAGE MISS LATENCY PREFETCH: -nan cycles
L1I AVERAGE MSHR OCCUPANCY: 0.0268477
L1I MSHR FULL: 0
L1I RQ	ACCESS:   66389932	FORWARD:          0	MERGED:   27747877	TO_CACHE:   38642055

BTB SPEC fills:          0  NON-SPEC fills:          0
BTB Test counter :          0
BTB Leapfrog:          0
BTB MSHR merge:          0
BTB TOTAL     ACCESS:   33166957  HIT:   32847077  MISS:     319880  HIT %:    99.0355  MISS %:   0.964454   MPKI: 1.5994
BTB BRANCH_DIRECT_JUMP	ACCESS:     525801  HIT:     523851  MISS:       1950
BTB BRANCH_INDIRECT	ACCESS:      94835  HIT:      37758  MISS:      57077
BTB BRANCH_CONDITIONAL	ACCESS:   27817701  HIT:   27808168  MISS:       9533
BTB BRANCH_DIRECT_CALL	ACCESS:    1305271  HIT:    1301665  MISS:       3606
BTB BRANCH_INDIRECT_CALL	ACCESS:    1059041  HIT:    1046752  MISS:      12289
BTB BRANCH_RETURN	ACCESS:    2364308  HIT:    2128883  MISS:     235425
BTB BRANCH_OTHER ACCESS:          0  HIT:          0  MISS:          0

L2C SPEC fills:          0  NON-SPEC fills:    1618397
L2C Test counter :          0
L2C Leapfrog:          0
L2C MSHR merge:        466
L2C TOTAL     ACCESS:   14168965  HIT:    6019838  MISS:    8149127  HIT %:    42.4861  MISS %:    57.5139   MPKI: 40.7456
L2C LOAD      TOTAL       ACCESS:    5877837  HIT:    1170659  MISS:    4707178  HIT %:    19.9165  MISS %:    80.0835   MPKI: 23.5359
L2C LOAD      NON_SPEC    ACCESS:    2518629  HIT:     769325  MISS:    1749304  HIT %:    30.5454  MISS %:    69.4546   MPKI: 8.74652
L2C LOAD      SPEC        ACCESS:    3359208  HIT:     401334  MISS:    2957874  HIT %:    11.9473  MISS %:    88.0527   MPKI: 14.7894
L2C RFO       NON_SPEC    ACCESS:      75592  HIT:      28953  MISS:      46639  HIT %:    38.3017  MISS %:    61.6983   MPKI: 0.233195
L2C PREFETCH  NON_SPEC    ACCESS:     316721  HIT:      54502  MISS:     262219  HIT %:    17.2082  MISS %:    82.7918   MPKI: 1.31109
L2C WRITEBACK NON_SPEC    ACCESS:     102762  HIT:     102599  MISS:        163  HIT %:    99.8414  MISS %:   0.158619   MPKI: 0.000815
L2C CLEAN_EVICTION NON_SPEC    ACCESS:    2967011  HIT:      68462  MISS:    2898549  HIT %:    2.30744  MISS %:    97.6926   MPKI: 14.4927
L2C COMMIT LOAD NON_SPEC    ACCESS:       9292  HIT:       5292  MISS:       4000  HIT %:    56.9522  MISS %:    43.0478   MPKI: 0.02
L2C LOAD TRANSLATION NON_SPEC    ACCESS:    4819285  HIT:    4589275  MISS:     230010  HIT %:    95.2273  MISS %:     4.7727   MPKI: 1.15005
L2C TRANSLATION FROM L1D PREFETCHER NON_SPEC    ACCESS:        465  HIT:         96  MISS:        369  HIT %:    20.6452  MISS %:    79.3548   MPKI: 0.001845
L2C PREFETCH  REQUESTED:          0  ISSUED:          0  USEFUL:      11269  USELESS:     250366
L2C USEFUL LOAD PREFETCHES:      11269 PREFETCH ISSUED TO LOWER LEVEL:     262685  ACCURACY: 4.28993
L2C TIMELY PREFETCHES:      11269 LATE PREFETCHES: 466 DROPPED PREFETCHES: 0
L2C COMMIT LATE PREFETCHES: 0 MISSED OPPORTUNITY: 0 LATE IN PQ: 0 UNCOVERED: 0
L2C COMMIT LATE MSHR PREFETCHES: 0
L2C MPKI TOTAL: 23.5359 MSHR LATE: 0.00233 PQ LATE: 0 COMMIT LATE: 0 MISSED OPPORTUNITY: 0 UNCOVERED: 0
L2C PREFETCHES SAME FILL-ORIGIN LEVEL: 8844 DIFFERENT FILL-ORIGIN LEVEL: 0
L2C AVERAGE MISS LATENCY: 94.1602 cycles
L2C AVERAGE MISS LATENCY LOAD: 141.69 cycles
L2C AVERAGE MISS LATENCY PREFETCH: 173.216 cycles
L2C AVERAGE MSHR OCCUPANCY: 0.873101
L2C MSHR FULL: 0
L2C RQ	ACCESS:   10782622	FORWARD:          0	MERGED:          0	TO_CACHE:   10782472
L2C WQ	ACCESS:    3069775	FORWARD:        150	MERGED:          2	TO_CACHE:    3069773
L2C PQ	ACCESS:     319045	FORWARD:          0	MERGED:         10	TO_CACHE:     319035

L2C Instructions Evicting Data 123885
L2C Translations Evicting Data 213475
L2C Data Evicting Data 1793657
L2C Instructions Evicting Instructions 3168
L2C Translations Evicting Instructions 4622
L2C Data Evicting Instructions 52720
L2C Instructions Evicting Translations 3854
L2C Translations Evicting Translations 12282
L2C Data Evicting Translations 84878
L2C Dense regions hint from L2: 0
PSCL5 SPEC fills:          0  NON-SPEC fills:          0
PSCL5 Test counter :          0
PSCL5 Leapfrog:          0
PSCL5 MSHR merge:          0
PSCL5 TOTAL     ACCESS:          0  HIT:          0  MISS:          0  HIT %:       -nan  MISS %:       -nan   MPKI: 0
PSCL5 PREFETCH  REQUESTED:          0  ISSUED:          0  USEFUL:          0  USELESS:          0
PSCL5 USEFUL LOAD PREFETCHES:          0 PREFETCH ISSUED TO LOWER LEVEL:          0  ACCURACY: -nan
PSCL5 TIMELY PREFETCHES:          0 LATE PREFETCHES: 0 DROPPED PREFETCHES: 0
PSCL5 COMMIT LATE PREFETCHES: 0 MISSED OPPORTUNITY: 0 LATE IN PQ: 0 UNCOVERED: 0
PSCL5 COMMIT LATE MSHR PREFETCHES: 0
PSCL5 MPKI TOTAL: 0 MSHR LATE: 0 PQ LATE: 0 COMMIT LATE: 0 MISSED OPPORTUNITY: 0 UNCOVERED: 0
PSCL5 PREFETCHES SAME FILL-ORIGIN LEVEL: 0 DIFFERENT FILL-ORIGIN LEVEL: 0

PSCL4 SPEC fills:          0  NON-SPEC fills:          0
PSCL4 Test counter :          0
PSCL4 Leapfrog:          0
PSCL4 MSHR merge:          0
PSCL4 TOTAL     ACCESS:          0  HIT:          0  MISS:          0  HIT %:       -nan  MISS %:       -nan   MPKI: 0
PSCL4 PREFETCH  REQUESTED:          0  ISSUED:          0  USEFUL:          0  USELESS:          0
PSCL4 USEFUL LOAD PREFETCHES:          0 PREFETCH ISSUED TO LOWER LEVEL:          0  ACCURACY: -nan
PSCL4 TIMELY PREFETCHES:          0 LATE PREFETCHES: 0 DROPPED PREFETCHES: 0
PSCL4 COMMIT LATE PREFETCHES: 0 MISSED OPPORTUNITY: 0 LATE IN PQ: 0 UNCOVERED: 0
PSCL4 COMMIT LATE MSHR PREFETCHES: 0
PSCL4 MPKI TOTAL: 0 MSHR LATE: 0 PQ LATE: 0 COMMIT LATE: 0 MISSED OPPORTUNITY: 0 UNCOVERED: 0
PSCL4 PREFETCHES SAME FILL-ORIGIN LEVEL: 0 DIFFERENT FILL-ORIGIN LEVEL: 0

PSCL3 SPEC fills:          0  NON-SPEC fills:          0
PSCL3 Test counter :          0
PSCL3 Leapfrog:          0
PSCL3 MSHR merge:          0
PSCL3 TOTAL     ACCESS:          0  HIT:          0  MISS:          0  HIT %:       -nan  MISS %:       -nan   MPKI: 0
PSCL3 PREFETCH  REQUESTED:          0  ISSUED:          0  USEFUL:          0  USELESS:          0
PSCL3 USEFUL LOAD PREFETCHES:          0 PREFETCH ISSUED TO LOWER LEVEL:          0  ACCURACY: -nan
PSCL3 TIMELY PREFETCHES:          0 LATE PREFETCHES: 0 DROPPED PREFETCHES: 0
PSCL3 COMMIT LATE PREFETCHES: 0 MISSED OPPORTUNITY: 0 LATE IN PQ: 0 UNCOVERED: 0
PSCL3 COMMIT LATE MSHR PREFETCHES: 0
PSCL3 MPKI TOTAL: 0 MSHR LATE: 0 PQ LATE: 0 COMMIT LATE: 0 MISSED OPPORTUNITY: 0 UNCOVERED: 0
PSCL3 PREFETCHES SAME FILL-ORIGIN LEVEL: 0 DIFFERENT FILL-ORIGIN LEVEL: 0

PSCL2 SPEC fills:          0  NON-SPEC fills:          0
PSCL2 Test counter :          0
PSCL2 Leapfrog:          0
PSCL2 MSHR merge:          0
PSCL2 TOTAL     ACCESS:          0  HIT:          0  MISS:          0  HIT %:       -nan  MISS %:       -nan   MPKI: 0
PSCL2 PREFETCH  REQUESTED:          0  ISSUED:          0  USEFUL:          0  USELESS:          0
PSCL2 USEFUL LOAD PREFETCHES:          0 PREFETCH ISSUED TO LOWER LEVEL:          0  ACCURACY: -nan
PSCL2 TIMELY PREFETCHES:          0 LATE PREFETCHES: 0 DROPPED PREFETCHES: 0
PSCL2 COMMIT LATE PREFETCHES: 0 MISSED OPPORTUNITY: 0 LATE IN PQ: 0 UNCOVERED: 0
PSCL2 COMMIT LATE MSHR PREFETCHES: 0
PSCL2 MPKI TOTAL: 0 MSHR LATE: 0 PQ LATE: 0 COMMIT LATE: 0 MISSED OPPORTUNITY: 0 UNCOVERED: 0
PSCL2 PREFETCHES SAME FILL-ORIGIN LEVEL: 0 DIFFERENT FILL-ORIGIN LEVEL: 0

LLC SPEC fills:          0  NON-SPEC fills:    1503713
LLC Test counter :          0
LLC Leapfrog:          0
LLC MSHR merge:          0
LLC TOTAL     ACCESS:    8237977  HIT:     896676  MISS:    7341301  HIT %:    10.8847  MISS %:    89.1153   MPKI: 36.7065
LLC LOAD      TOTAL       ACCESS:    4706711  HIT:     571073  MISS:    4135638  HIT %:    12.1332  MISS %:    87.8668   MPKI: 20.6782
LLC LOAD      NON_SPEC    ACCESS:    1749303  HIT:     158251  MISS:    1591052  HIT %:    9.04652  MISS %:    90.9535   MPKI: 7.95526
LLC LOAD      SPEC        ACCESS:    2957408  HIT:     412822  MISS:    2544586  HIT %:    13.9589  MISS %:    86.0411   MPKI: 12.7229
LLC RFO       NON_SPEC    ACCESS:      46639  HIT:       5818  MISS:      40821  HIT %:    12.4745  MISS %:    87.5255   MPKI: 0.204105
LLC PREFETCH  NON_SPEC    ACCESS:     262685  HIT:      44785  MISS:     217900  HIT %:    17.0489  MISS %:    82.9511   MPKI: 1.0895
LLC WRITEBACK NON_SPEC    ACCESS:      61061  HIT:      60961  MISS:        100  HIT %:    99.8362  MISS %:   0.163771   MPKI: 0.0005
LLC CLEAN_EVICTION NON_SPEC    ACCESS:    2926502  HIT:     202060  MISS:    2724442  HIT %:    6.90449  MISS %:    93.0955   MPKI: 13.6222
LLC COMMIT LOAD NON_SPEC    ACCESS:       4000  HIT:       1346  MISS:       2654  HIT %:      33.65  MISS %:      66.35   MPKI: 0.01327
LLC LOAD TRANSLATION NON_SPEC    ACCESS:     230010  HIT:      10572  MISS:     219438  HIT %:    4.59632  MISS %:    95.4037   MPKI: 1.09719
LLC TRANSLATION FROM L1D PREFETCHER NON_SPEC    ACCESS:        369  HIT:         61  MISS:        308  HIT %:    16.5312  MISS %:    83.4688   MPKI: 0.00154
LLC PREFETCH  REQUESTED:          0  ISSUED:          0  USEFUL:       6898  USELESS:     208922
LLC USEFUL LOAD PREFETCHES:       6898 PREFETCH ISSUED TO LOWER LEVEL:     217900  ACCURACY: 3.16567
LLC TIMELY PREFETCHES:       6898 LATE PREFETCHES: 0 DROPPED PREFETCHES: 0
LLC COMMIT LATE PREFETCHES: 0 MISSED OPPORTUNITY: 0 LATE IN PQ: 0 UNCOVERED: 0
LLC COMMIT LATE MSHR PREFETCHES: 0
LLC MPKI TOTAL: 20.6782 MSHR LATE: 0 PQ LATE: 0 COMMIT LATE: 0 MISSED OPPORTUNITY: 0 UNCOVERED: 0
LLC PREFETCHES SAME FILL-ORIGIN LEVEL: 0 DIFFERENT FILL-ORIGIN LEVEL: 0
LLC AVERAGE MISS LATENCY: 86.7084 cycles
LLC AVERAGE MISS LATENCY LOAD: 133.516 cycles
LLC AVERAGE MISS LATENCY PREFETCH: 173.783 cycles
LLC AVERAGE MSHR OCCUPANCY: 0.802964
LLC MSHR FULL: 0
LLC RQ	ACCESS:    4987731	FORWARD:          0	MERGED:          0	TO_CACHE:    4987730
LLC WQ	ACCESS:    2987564	FORWARD:          1	MERGED:          0	TO_CACHE:    2987564
LLC PQ	ACCESS:     262685	FORWARD:          0	MERGED:          0	TO_CACHE:     262685

LLC Dense regions hint to LLC: 0

RAW hits: 290899
Loads Generated: 58989068
Loads sent to L1D: 58698169
Stores Generated: 9906424
Stores sent to L1D: 9906424
Major fault: 0 Minor fault: 11434
Allocated PAGES: 11434
Total Load insts: 73341759
Total Non-spec loads: 11671849
Percentage of speculative loads: 84.0857

LeapFrogging counter: 3143
Commit hits: 18341917 miss: 29664882
Commit hit %: 38.2069 miss %: 61.7931
Commits not translated: 0
Loads retired: 5167614
Stores retired: 9906424
Cache fills: 5167615
L1D response latency: 138.217 cycles
Load retirement latency: 246.6 cycles
OOO test counter: 0
Discarded buffer inserts: 18341917 hits: 45312 hit %: 0.247041
Filter prediction accuracy: 99.2488
Speculative prefetch buffer size: 0
CPU 0 L1D PC-based stride prefetcher final stats
Degree: 3

DRAM Statistics
 CHANNEL 0
 RQ ROW_BUFFER_HIT:    1261514  ROW_BUFFER_MISS:    3355081
 DBUS_CONGESTED:      14854
 WQ ROW_BUFFER_HIT:     648196  ROW_BUFFER_MISS:    2170882  FULL:        360

 AVG_CONGESTED_CYCLE: 5
 All warmup complete: 2
Channel 0 Bank busy for read cycles: 0
Channel 0 Bank busy for write cycles: 0
Channel 0
Rank 0
0banks busy for read cycles: 133183269
0banks busy for write cycles: 220441
1banks busy for read cycles: 223378502
1banks busy for write cycles: 43830374
2banks busy for read cycles: 89529946
2banks busy for write cycles: 56611378
3banks busy for read cycles: 38985988
3banks busy for write cycles: 57397259
4banks busy for read cycles: 9373584
4banks busy for write cycles: 41804067
5banks busy for read cycles: 1029892
5banks busy for write cycles: 21553357
6banks busy for read cycles: 251114
6banks busy for write cycles: 8285968
7banks busy for read cycles: 137017
7banks busy for write cycles: 3254857
8banks busy for read cycles: 260431
8banks busy for write cycles: 1960536

CPU 0 Branch Prediction Accuracy: 99.7326% MPKI: 0.69165 Average ROB Occupancy at Mispredict: 108.742
Branch types
NOT_BRANCH: 148259765 74.1299%
BRANCH_DIRECT_JUMP: 525801 0.2629%
BRANCH_INDIRECT: 94835 0.0474175%
BRANCH_CONDITIONAL: 46390980 23.1955%
BRANCH_DIRECT_CALL: 1305271 0.652635%
BRANCH_INDIRECT_CALL: 1059041 0.52952%
BRANCH_RETURN: 2364308 1.18215%
BRANCH_OTHER: 0 0%

DRAM PAGES: 1048576
Allocated PAGES: 11434
