
*** ChampSim Multicore Out-of-Order Simulator ***

Warmup Instructions: 50000000
Simulation Instructions: 200000000
Number of CPUs: 1
LLC sets: 2048
LLC ways: 16
L0D sets: 16
L0D ways: 2
ROB size: 352
LQ size: 128
SQ size: 72
Secure Berti: OFF
Berti: OFF
Berti Fill: OFF
On commit prefetching: OFF
Hit-based filter: ON
Time-guarding: ON
Free-slotting: ON
Leap-frogging: ON
Train prefetcher on L0D bypass: OFF
No translation penalty for prefetchers: OFF
Prefetch to L0D only: OFF
Prefetch to L1D only: OFF
Clean evictions: ON
Commit loads: ON
Commit write: ON
Fill commit loads to L2C, LLC: ON
DRAM IO FREQUENCY: 6400
ROB SIZE: 352
Off-chip DRAM Size: 4096 MB Channels: 1 Width: 64-bit Data Rate: 6400 MT/s
CPU 0 runs /home/sumon/secure_berti/GhostMinion/../../traces/spec/623.xalancbmk_s-202B.champsimtrace.xz
.xz
BTB has LRU replacement policy
ITLB has LRU replacement policy
DTLB has LRU replacement policy
STLB has LRU replacement policy
L1I has LRU replacement policy
L0D has LRU replacement policy
CPU 0 L1D IP-based stride prefetcher
L1D has LRU replacement policy
L2C has LRU replacement policy
LLC has LRU replacement policy
Heartbeat CPU 0 instructions: 10000001 cycles: 3756204 heartbeat IPC: 2.66226 cumulative IPC: 2.66226 (Simulation time: 0 hr 0 min 31 sec) 
Heartbeat CPU 0 instructions: 20000002 cycles: 7489169 heartbeat IPC: 2.67884 cumulative IPC: 2.67052 (Simulation time: 0 hr 1 min 1 sec) 
Heartbeat CPU 0 instructions: 30000001 cycles: 11221955 heartbeat IPC: 2.67896 cumulative IPC: 2.67333 (Simulation time: 0 hr 1 min 31 sec) 
Heartbeat CPU 0 instructions: 40000002 cycles: 14953099 heartbeat IPC: 2.68014 cumulative IPC: 2.67503 (Simulation time: 0 hr 2 min 2 sec) 
Heartbeat CPU 0 instructions: 50000001 cycles: 18687189 heartbeat IPC: 2.67803 cumulative IPC: 2.67563 (Simulation time: 0 hr 2 min 32 sec) 

Warmup complete CPU 0 instructions: 50000001 cycles: 18687189 (Simulation time: 0 hr 2 min 32 sec) 

Heartbeat CPU 0 instructions: 60000002 cycles: 30019192 heartbeat IPC: 0.882457 cumulative IPC: 0.882457 (Simulation time: 0 hr 3 min 10 sec) 
Heartbeat CPU 0 instructions: 70000000 cycles: 41287343 heartbeat IPC: 0.887457 cumulative IPC: 0.88495 (Simulation time: 0 hr 3 min 48 sec) 
Heartbeat CPU 0 instructions: 80000000 cycles: 52713754 heartbeat IPC: 0.875165 cumulative IPC: 0.881664 (Simulation time: 0 hr 4 min 26 sec) 
Heartbeat CPU 0 instructions: 90000001 cycles: 63860784 heartbeat IPC: 0.8971 cumulative IPC: 0.885473 (Simulation time: 0 hr 5 min 3 sec) 
Heartbeat CPU 0 instructions: 100000000 cycles: 75185149 heartbeat IPC: 0.883052 cumulative IPC: 0.884988 (Simulation time: 0 hr 5 min 41 sec) 
Heartbeat CPU 0 instructions: 110000000 cycles: 86445045 heartbeat IPC: 0.888108 cumulative IPC: 0.885506 (Simulation time: 0 hr 6 min 19 sec) 
Heartbeat CPU 0 instructions: 120000002 cycles: 97659494 heartbeat IPC: 0.891707 cumulative IPC: 0.886387 (Simulation time: 0 hr 6 min 57 sec) 
Heartbeat CPU 0 instructions: 130000002 cycles: 108977422 heartbeat IPC: 0.883554 cumulative IPC: 0.886032 (Simulation time: 0 hr 7 min 34 sec) 
Heartbeat CPU 0 instructions: 140000001 cycles: 120420703 heartbeat IPC: 0.873875 cumulative IPC: 0.884664 (Simulation time: 0 hr 8 min 13 sec) 
Heartbeat CPU 0 instructions: 150000001 cycles: 131722626 heartbeat IPC: 0.884805 cumulative IPC: 0.884678 (Simulation time: 0 hr 8 min 51 sec) 
Heartbeat CPU 0 instructions: 160000000 cycles: 142961794 heartbeat IPC: 0.889745 cumulative IPC: 0.885137 (Simulation time: 0 hr 9 min 29 sec) 
Heartbeat CPU 0 instructions: 170000001 cycles: 154146618 heartbeat IPC: 0.894069 cumulative IPC: 0.885874 (Simulation time: 0 hr 10 min 6 sec) 
Heartbeat CPU 0 instructions: 180000000 cycles: 165559353 heartbeat IPC: 0.876214 cumulative IPC: 0.885123 (Simulation time: 0 hr 10 min 45 sec) 
Heartbeat CPU 0 instructions: 190000002 cycles: 176741730 heartbeat IPC: 0.894264 cumulative IPC: 0.88577 (Simulation time: 0 hr 11 min 22 sec) 
Heartbeat CPU 0 instructions: 200000002 cycles: 188099571 heartbeat IPC: 0.880449 cumulative IPC: 0.885413 (Simulation time: 0 hr 12 min 1 sec) 
Heartbeat CPU 0 instructions: 210000003 cycles: 199229626 heartbeat IPC: 0.898468 cumulative IPC: 0.886218 (Simulation time: 0 hr 12 min 36 sec) 
Heartbeat CPU 0 instructions: 220000000 cycles: 210510542 heartbeat IPC: 0.886453 cumulative IPC: 0.886232 (Simulation time: 0 hr 13 min 12 sec) 
Heartbeat CPU 0 instructions: 230000001 cycles: 221717575 heartbeat IPC: 0.892297 cumulative IPC: 0.886567 (Simulation time: 0 hr 13 min 48 sec) 
Heartbeat CPU 0 instructions: 240000001 cycles: 232887430 heartbeat IPC: 0.895267 cumulative IPC: 0.88702 (Simulation time: 0 hr 14 min 23 sec) 
Heartbeat CPU 0 instructions: 250000001 cycles: 244149616 heartbeat IPC: 0.887927 cumulative IPC: 0.887066 (Simulation time: 0 hr 14 min 58 sec) 
Finished CPU 0 instructions: 200000000 cycles: 225462427 cumulative IPC: 0.887066 (Simulation time: 0 hr 14 min 58 sec) 
 Instruction ID: 250000047

ChampSim completed all CPUs

Region of Interest Statistics

CPU 0 cumulative IPC: 0.887066 instructions: 200000000 cycles: 225462427
ITLB SPEC fills:          0  NON-SPEC fills:          0
ITLB Test counter :          0
ITLB Leapfrog:          0
ITLB MSHR merge:          0
ITLB TOTAL     ACCESS:   28440137  HIT:   28440137  MISS:          0  HIT %:        100  MISS %:          0   MPKI: 0
ITLB LOAD TRANSLATION NON_SPEC    ACCESS:   28440137  HIT:   28440137  MISS:          0  HIT %:        100  MISS %:          0   MPKI: 0
ITLB PREFETCH  REQUESTED:          0  ISSUED:          0  USEFUL:          0  USELESS:          0
ITLB USEFUL LOAD PREFETCHES:          0 PREFETCH ISSUED TO LOWER LEVEL:          0  ACCURACY: -nan
ITLB TIMELY PREFETCHES:          0 LATE PREFETCHES: 0 DROPPED PREFETCHES: 0
ITLB COMMIT LATE PREFETCHES: 0 MISSED OPPORTUNITY: 0 LATE IN PQ: 0 UNCOVERED: 0
ITLB COMMIT LATE MSHR PREFETCHES: 0
ITLB MPKI TOTAL: 0 MSHR LATE: 0 PQ LATE: 0 COMMIT LATE: 0 MISSED OPPORTUNITY: 0 UNCOVERED: 0
ITLB PREFETCHES SAME FILL-ORIGIN LEVEL: 0 DIFFERENT FILL-ORIGIN LEVEL: 0
ITLB AVERAGE MISS LATENCY: -nan cycles
ITLB AVERAGE MISS LATENCY LOAD: -nan cycles
ITLB AVERAGE MISS LATENCY PREFETCH: -nan cycles
ITLB AVERAGE MSHR OCCUPANCY: 0
ITLB MSHR FULL: 0
ITLB RQ	ACCESS:   35525868	FORWARD:          0	MERGED:    7085732	TO_CACHE:   28440136

DTLB SPEC fills:          0  NON-SPEC fills:          0
DTLB Test counter :          0
DTLB Leapfrog:          0
DTLB MSHR merge:          0
DTLB TOTAL     ACCESS:   39694985  HIT:   39607180  MISS:      87805  HIT %:    99.7788  MISS %:   0.221199   MPKI: 0.439025
DTLB LOAD TRANSLATION NON_SPEC    ACCESS:   39694985  HIT:   39607180  MISS:      87805  HIT %:    99.7788  MISS %:   0.221199   MPKI: 0.439025
DTLB PREFETCH  REQUESTED:          0  ISSUED:          0  USEFUL:          0  USELESS:          0
DTLB USEFUL LOAD PREFETCHES:          0 PREFETCH ISSUED TO LOWER LEVEL:          0  ACCURACY: -nan
DTLB TIMELY PREFETCHES:          0 LATE PREFETCHES: 0 DROPPED PREFETCHES: 0
DTLB COMMIT LATE PREFETCHES: 0 MISSED OPPORTUNITY: 0 LATE IN PQ: 0 UNCOVERED: 0
DTLB COMMIT LATE MSHR PREFETCHES: 0
DTLB MPKI TOTAL: 0 MSHR LATE: 0 PQ LATE: 0 COMMIT LATE: 0 MISSED OPPORTUNITY: 0 UNCOVERED: 0
DTLB PREFETCHES SAME FILL-ORIGIN LEVEL: 0 DIFFERENT FILL-ORIGIN LEVEL: 0
DTLB AVERAGE MISS LATENCY: 10.2283 cycles
DTLB AVERAGE MISS LATENCY LOAD: -nan cycles
DTLB AVERAGE MISS LATENCY PREFETCH: -nan cycles
DTLB AVERAGE MSHR OCCUPANCY: 0.00109557
DTLB MSHR FULL: 0
DTLB RQ	ACCESS:   44395206	FORWARD:          0	MERGED:    4699937	TO_CACHE:   39695269

STLB SPEC fills:          0  NON-SPEC fills:          0
STLB Test counter :          0
STLB Leapfrog:          0
STLB MSHR merge:          0
STLB TOTAL     ACCESS:    4261762  HIT:    4261579  MISS:        183  HIT %:    99.9957  MISS %:   0.004294   MPKI: 0.000915
STLB LOAD TRANSLATION NON_SPEC    ACCESS:      87805  HIT:      87622  MISS:        183  HIT %:    99.7916  MISS %:   0.208416   MPKI: 0.000915
STLB TRANSLATION FROM L1D PREFETCHER NON_SPEC    ACCESS:    4173957  HIT:    4173957  MISS:          0  HIT %:        100  MISS %:          0   MPKI: 0
STLB PREFETCH  REQUESTED:          0  ISSUED:          0  USEFUL:          0  USELESS:          0
STLB USEFUL LOAD PREFETCHES:          0 PREFETCH ISSUED TO LOWER LEVEL:          0  ACCURACY: -nan
STLB TIMELY PREFETCHES:          0 LATE PREFETCHES: 0 DROPPED PREFETCHES: 0
STLB COMMIT LATE PREFETCHES: 0 MISSED OPPORTUNITY: 0 LATE IN PQ: 0 UNCOVERED: 0
STLB COMMIT LATE MSHR PREFETCHES: 0
STLB MPKI TOTAL: 0 MSHR LATE: 0 PQ LATE: 0 COMMIT LATE: 0 MISSED OPPORTUNITY: 0 UNCOVERED: 0
STLB PREFETCHES SAME FILL-ORIGIN LEVEL: 0 DIFFERENT FILL-ORIGIN LEVEL: 0
STLB AVERAGE MISS LATENCY: 588.273 cycles
STLB AVERAGE MISS LATENCY LOAD: -nan cycles
STLB AVERAGE MISS LATENCY PREFETCH: -nan cycles
STLB AVERAGE MSHR OCCUPANCY: 2.1118e-05
STLB MSHR FULL: 0
STLB RQ	ACCESS:   16326026	FORWARD:          0	MERGED:   12064264	TO_CACHE:    4261762

STLB Hit, L1D data hit: 0
STLB Hit, L2C data hit: 0
STLB Hit, LLC data hit: 0
STLB Hit, LLC data miss: 0
STLB STLB hints to L2: 0
L0D SPEC fills:   24029692  NON-SPEC fills:          0
L0D TimeGuard Request with older TS:     179128 Restricted eviction:      58988 read:      23435
L0D Test counter :          0
L0D Leapfrog:          0
L0D MSHR merge:    1929819
L0D TOTAL     ACCESS:   38926664  HIT:    7500435  MISS:   31426229  HIT %:    19.2681  MISS %:    80.7319   MPKI: 157.131
L0D LOAD      TOTAL       ACCESS:   38926664  HIT:    7500435  MISS:   31426229  HIT %:    19.2681  MISS %:    80.7319   MPKI: 157.131
L0D LOAD      NON_SPEC    ACCESS:    7398723  HIT:      61174  MISS:    7337549  HIT %:   0.826818  MISS %:    99.1732   MPKI: 36.6877
L0D LOAD      SPEC        ACCESS:   31527941  HIT:    7439261  MISS:   24088680  HIT %:    23.5958  MISS %:    76.4042   MPKI: 120.443
L0D PREFETCH  REQUESTED:          0  ISSUED:          0  USEFUL:          0  USELESS:          0
L0D USEFUL LOAD PREFETCHES:          0 PREFETCH ISSUED TO LOWER LEVEL:          0  ACCURACY: -nan
L0D TIMELY PREFETCHES:          0 LATE PREFETCHES: 0 DROPPED PREFETCHES: 0
L0D COMMIT LATE PREFETCHES: 0 MISSED OPPORTUNITY: 0 LATE IN PQ: 0 UNCOVERED: 0
L0D COMMIT LATE MSHR PREFETCHES: 0
L0D MPKI TOTAL: 166.78 MSHR LATE: 0 PQ LATE: 0 COMMIT LATE: 0 MISSED OPPORTUNITY: 0 UNCOVERED: 0
L0D PREFETCHES SAME FILL-ORIGIN LEVEL: 0 DIFFERENT FILL-ORIGIN LEVEL: 0
L0D AVERAGE MISS LATENCY: 6.71052 cycles
L0D AVERAGE MISS LATENCY LOAD: 6.71052 cycles
L0D AVERAGE MISS LATENCY PREFETCH: -nan cycles
L0D AVERAGE MSHR OCCUPANCY: 0.668249
L0D MSHR FULL: 0
L0D RQ	ACCESS:   59779605	FORWARD:          0	MERGED:   18923124	TO_CACHE:   40856481
L0D WQ	ACCESS:    3538725	FORWARD:          0	MERGED:          0	TO_CACHE:    3538725

L1D SPEC fills:          0  NON-SPEC fills:     197546
L1D Test counter :          0
L1D Leapfrog:          0
L1D MSHR merge:      17941
L1D TOTAL     ACCESS:   50935918  HIT:   45442334  MISS:    5493584  HIT %:    89.2147  MISS %:    10.7853   MPKI: 27.4679
L1D LOAD      TOTAL       ACCESS:   31425830  HIT:   30821885  MISS:     603945  HIT %:    98.0782  MISS %:    1.92181   MPKI: 3.01973
L1D LOAD      NON_SPEC    ACCESS:    7337510  HIT:    7139964  MISS:     197546  HIT %:    97.3077  MISS %:    2.69228   MPKI: 0.98773
L1D LOAD      SPEC        ACCESS:   24088320  HIT:   23681921  MISS:     406399  HIT %:    98.3129  MISS %:    1.68712   MPKI: 2.032
L1D RFO       NON_SPEC    ACCESS:    3538725  HIT:    3538725  MISS:          0  HIT %:        100  MISS %:          0   MPKI: 0
L1D PREFETCH  NON_SPEC    ACCESS:   15047579  HIT:   10561998  MISS:    4485581  HIT %:    70.1907  MISS %:    29.8093   MPKI: 22.4279
L1D COMMIT LOAD NON_SPEC    ACCESS:     480235  HIT:     479358  MISS:        877  HIT %:    99.8174  MISS %:   0.182619   MPKI: 0.004385
L1D COMMIT WRITE NON_SPEC    ACCESS:     443549  HIT:      40368  MISS:     403181  HIT %:    9.10114  MISS %:    90.8989   MPKI: 2.01591
L1D PREFETCH  REQUESTED:   17225533  ISSUED:   17225533  USEFUL:    4461322  USELESS:      24282
L1D USEFUL LOAD PREFETCHES:    4461322 PREFETCH ISSUED TO LOWER LEVEL:    4731337  ACCURACY: 94.2931
L1D TIMELY PREFETCHES:    4461322 LATE PREFETCHES: 17542 DROPPED PREFETCHES: 0
L1D COMMIT LATE PREFETCHES: 0 MISSED OPPORTUNITY: 0 LATE IN PQ: 0 UNCOVERED: 0
L1D COMMIT LATE MSHR PREFETCHES: 0
L1D MPKI TOTAL: 3.02172 MSHR LATE: 0.08771 PQ LATE: 0 COMMIT LATE: 0 MISSED OPPORTUNITY: 0 UNCOVERED: 0
L1D PREFETCHES SAME FILL-ORIGIN LEVEL: 4503128 DIFFERENT FILL-ORIGIN LEVEL: 228209
L1D AVERAGE MISS LATENCY: 109.148 cycles
L1D AVERAGE MISS LATENCY LOAD: 82.0568 cycles
L1D AVERAGE MISS LATENCY PREFETCH: 122.616 cycles
L1D AVERAGE MSHR OCCUPANCY: 2.02683
L1D MSHR FULL: 0.000170652
L1D RQ	ACCESS:   32440830	FORWARD:          0	MERGED:     533879	TO_CACHE:   31906951
L1D WQ	ACCESS:    3982274	FORWARD:          0	MERGED:          0	TO_CACHE:    3982274
L1D PQ	ACCESS:   17225533	FORWARD:          0	MERGED:     987312	TO_CACHE:   16238221

L1D UNIQUE REGIONS ACCESSED: 0
L1D REGIONS CONFLICTS: 0
L1D Cross Page Prefetch Requests: 0
L1D Same Page Prefetch Requests: 20935641
L1D ROI Sum of L1D PQ occupancy: 225744463
L1D PREFETCHES PUSHED FROM L2C: 0
L1I SPEC fills:          0  NON-SPEC fills:          0
L1I Test counter :          0
L1I Leapfrog:          0
L1I MSHR merge:          0
L1I TOTAL     ACCESS:   35525869  HIT:   35525869  MISS:          0  HIT %:        100  MISS %:          0   MPKI: 0
L1I LOAD      TOTAL       ACCESS:   35525869  HIT:   35525869  MISS:          0  HIT %:        100  MISS %:          0   MPKI: 0
L1I LOAD      NON_SPEC    ACCESS:   35525869  HIT:   35525869  MISS:          0  HIT %:        100  MISS %:          0   MPKI: 0
L1I PREFETCH  REQUESTED:          0  ISSUED:          0  USEFUL:          0  USELESS:          0
L1I USEFUL LOAD PREFETCHES:          0 PREFETCH ISSUED TO LOWER LEVEL:          0  ACCURACY: -nan
L1I TIMELY PREFETCHES:          0 LATE PREFETCHES: 0 DROPPED PREFETCHES: 0
L1I COMMIT LATE PREFETCHES: 0 MISSED OPPORTUNITY: 0 LATE IN PQ: 0 UNCOVERED: 0
L1I COMMIT LATE MSHR PREFETCHES: 0
L1I MPKI TOTAL: 0 MSHR LATE: 0 PQ LATE: 0 COMMIT LATE: 0 MISSED OPPORTUNITY: 0 UNCOVERED: 0
L1I PREFETCHES SAME FILL-ORIGIN LEVEL: 0 DIFFERENT FILL-ORIGIN LEVEL: 0
L1I AVERAGE MISS LATENCY: -nan cycles
L1I AVERAGE MISS LATENCY LOAD: -nan cycles
L1I AVERAGE MISS LATENCY PREFETCH: -nan cycles
L1I AVERAGE MSHR OCCUPANCY: 0
L1I MSHR FULL: 0
L1I RQ	ACCESS:   66132850	FORWARD:          0	MERGED:   30606982	TO_CACHE:   35525868

BTB SPEC fills:          0  NON-SPEC fills:          0
BTB Test counter :          0
BTB Leapfrog:          0
BTB MSHR merge:          0
BTB TOTAL     ACCESS:   34960369  HIT:   34960352  MISS:         17  HIT %:        100  MISS %: 4.86265e-05   MPKI: 8.5e-05
BTB BRANCH_DIRECT_JUMP	ACCESS:        138  HIT:        137  MISS:          1
BTB BRANCH_INDIRECT	ACCESS:          0  HIT:          0  MISS:          0
BTB BRANCH_CONDITIONAL	ACCESS:   31422478  HIT:   31422469  MISS:          9
BTB BRANCH_DIRECT_CALL	ACCESS:     884507  HIT:     884505  MISS:          2
BTB BRANCH_INDIRECT_CALL	ACCESS:     884370  HIT:     884369  MISS:          1
BTB BRANCH_RETURN	ACCESS:    1768876  HIT:    1768872  MISS:          4
BTB BRANCH_OTHER ACCESS:          0  HIT:          0  MISS:          0

L2C SPEC fills:          0  NON-SPEC fills:     170520
L2C Test counter :          0
L2C Leapfrog:          0
L2C MSHR merge:         46
L2C TOTAL     ACCESS:    5628321  HIT:     329172  MISS:    5299149  HIT %:    5.84849  MISS %:    94.1515   MPKI: 26.4957
L2C LOAD      TOTAL       ACCESS:     586139  HIT:      85685  MISS:     500454  HIT %:    14.6185  MISS %:    85.3815   MPKI: 2.50227
L2C LOAD      NON_SPEC    ACCESS:     197148  HIT:      26628  MISS:     170520  HIT %:    13.5066  MISS %:    86.4934   MPKI: 0.8526
L2C LOAD      SPEC        ACCESS:     388991  HIT:      59057  MISS:     329934  HIT %:    15.1821  MISS %:    84.8179   MPKI: 1.64967
L2C PREFETCH  NON_SPEC    ACCESS:    4679427  HIT:     209372  MISS:    4470055  HIT %:    4.47431  MISS %:    95.5257   MPKI: 22.3503
L2C WRITEBACK NON_SPEC    ACCESS:        137  HIT:        137  MISS:          0  HIT %:        100  MISS %:          0   MPKI: 0
L2C CLEAN_EVICTION NON_SPEC    ACCESS:     360826  HIT:      33264  MISS:     327562  HIT %:    9.21885  MISS %:    90.7812   MPKI: 1.63781
L2C COMMIT LOAD NON_SPEC    ACCESS:        877  HIT:        371  MISS:        506  HIT %:    42.3033  MISS %:    57.6967   MPKI: 0.00253
L2C LOAD TRANSLATION NON_SPEC    ACCESS:        915  HIT:        343  MISS:        572  HIT %:    37.4863  MISS %:    62.5137   MPKI: 0.00286
L2C PREFETCH  REQUESTED:          0  ISSUED:          0  USEFUL:      37308  USELESS:    4432609
L2C USEFUL LOAD PREFETCHES:      37308 PREFETCH ISSUED TO LOWER LEVEL:    4470106  ACCURACY: 0.834611
L2C TIMELY PREFETCHES:      37308 LATE PREFETCHES: 46 DROPPED PREFETCHES: 0
L2C COMMIT LATE PREFETCHES: 0 MISSED OPPORTUNITY: 0 LATE IN PQ: 0 UNCOVERED: 0
L2C COMMIT LATE MSHR PREFETCHES: 0
L2C MPKI TOTAL: 2.50227 MSHR LATE: 0.00023 PQ LATE: 0 COMMIT LATE: 0 MISSED OPPORTUNITY: 0 UNCOVERED: 0
L2C PREFETCHES SAME FILL-ORIGIN LEVEL: 221878 DIFFERENT FILL-ORIGIN LEVEL: 0
L2C AVERAGE MISS LATENCY: 103.242 cycles
L2C AVERAGE MISS LATENCY LOAD: 81.3096 cycles
L2C AVERAGE MISS LATENCY PREFETCH: 113.262 cycles
L2C AVERAGE MSHR OCCUPANCY: 2.061
L2C MSHR FULL: 0
L2C RQ	ACCESS:     588195	FORWARD:          0	MERGED:          0	TO_CACHE:     587931
L2C WQ	ACCESS:     360963	FORWARD:        264	MERGED:          0	TO_CACHE:     360963
L2C PQ	ACCESS:    4731337	FORWARD:          0	MERGED:          0	TO_CACHE:    4731337

L2C Instructions Evicting Data 0
L2C Translations Evicting Data 572
L2C Data Evicting Data 4640633
L2C Instructions Evicting Instructions 0
L2C Translations Evicting Instructions 0
L2C Data Evicting Instructions 0
L2C Instructions Evicting Translations 0
L2C Translations Evicting Translations 0
L2C Data Evicting Translations 448
L2C Dense regions hint from L2: 0
PSCL5 SPEC fills:          0  NON-SPEC fills:          0
PSCL5 Test counter :          0
PSCL5 Leapfrog:          0
PSCL5 MSHR merge:          0
PSCL5 TOTAL     ACCESS:          0  HIT:          0  MISS:          0  HIT %:       -nan  MISS %:       -nan   MPKI: 0
PSCL5 PREFETCH  REQUESTED:          0  ISSUED:          0  USEFUL:          0  USELESS:          0
PSCL5 USEFUL LOAD PREFETCHES:          0 PREFETCH ISSUED TO LOWER LEVEL:          0  ACCURACY: -nan
PSCL5 TIMELY PREFETCHES:          0 LATE PREFETCHES: 0 DROPPED PREFETCHES: 0
PSCL5 COMMIT LATE PREFETCHES: 0 MISSED OPPORTUNITY: 0 LATE IN PQ: 0 UNCOVERED: 0
PSCL5 COMMIT LATE MSHR PREFETCHES: 0
PSCL5 MPKI TOTAL: 0 MSHR LATE: 0 PQ LATE: 0 COMMIT LATE: 0 MISSED OPPORTUNITY: 0 UNCOVERED: 0
PSCL5 PREFETCHES SAME FILL-ORIGIN LEVEL: 0 DIFFERENT FILL-ORIGIN LEVEL: 0

PSCL4 SPEC fills:          0  NON-SPEC fills:          0
PSCL4 Test counter :          0
PSCL4 Leapfrog:          0
PSCL4 MSHR merge:          0
PSCL4 TOTAL     ACCESS:          0  HIT:          0  MISS:          0  HIT %:       -nan  MISS %:       -nan   MPKI: 0
PSCL4 PREFETCH  REQUESTED:          0  ISSUED:          0  USEFUL:          0  USELESS:          0
PSCL4 USEFUL LOAD PREFETCHES:          0 PREFETCH ISSUED TO LOWER LEVEL:          0  ACCURACY: -nan
PSCL4 TIMELY PREFETCHES:          0 LATE PREFETCHES: 0 DROPPED PREFETCHES: 0
PSCL4 COMMIT LATE PREFETCHES: 0 MISSED OPPORTUNITY: 0 LATE IN PQ: 0 UNCOVERED: 0
PSCL4 COMMIT LATE MSHR PREFETCHES: 0
PSCL4 MPKI TOTAL: 0 MSHR LATE: 0 PQ LATE: 0 COMMIT LATE: 0 MISSED OPPORTUNITY: 0 UNCOVERED: 0
PSCL4 PREFETCHES SAME FILL-ORIGIN LEVEL: 0 DIFFERENT FILL-ORIGIN LEVEL: 0

PSCL3 SPEC fills:          0  NON-SPEC fills:          0
PSCL3 Test counter :          0
PSCL3 Leapfrog:          0
PSCL3 MSHR merge:          0
PSCL3 TOTAL     ACCESS:          0  HIT:          0  MISS:          0  HIT %:       -nan  MISS %:       -nan   MPKI: 0
PSCL3 PREFETCH  REQUESTED:          0  ISSUED:          0  USEFUL:          0  USELESS:          0
PSCL3 USEFUL LOAD PREFETCHES:          0 PREFETCH ISSUED TO LOWER LEVEL:          0  ACCURACY: -nan
PSCL3 TIMELY PREFETCHES:          0 LATE PREFETCHES: 0 DROPPED PREFETCHES: 0
PSCL3 COMMIT LATE PREFETCHES: 0 MISSED OPPORTUNITY: 0 LATE IN PQ: 0 UNCOVERED: 0
PSCL3 COMMIT LATE MSHR PREFETCHES: 0
PSCL3 MPKI TOTAL: 0 MSHR LATE: 0 PQ LATE: 0 COMMIT LATE: 0 MISSED OPPORTUNITY: 0 UNCOVERED: 0
PSCL3 PREFETCHES SAME FILL-ORIGIN LEVEL: 0 DIFFERENT FILL-ORIGIN LEVEL: 0

PSCL2 SPEC fills:          0  NON-SPEC fills:          0
PSCL2 Test counter :          0
PSCL2 Leapfrog:          0
PSCL2 MSHR merge:          0
PSCL2 TOTAL     ACCESS:          0  HIT:          0  MISS:          0  HIT %:       -nan  MISS %:       -nan   MPKI: 0
PSCL2 PREFETCH  REQUESTED:          0  ISSUED:          0  USEFUL:          0  USELESS:          0
PSCL2 USEFUL LOAD PREFETCHES:          0 PREFETCH ISSUED TO LOWER LEVEL:          0  ACCURACY: -nan
PSCL2 TIMELY PREFETCHES:          0 LATE PREFETCHES: 0 DROPPED PREFETCHES: 0
PSCL2 COMMIT LATE PREFETCHES: 0 MISSED OPPORTUNITY: 0 LATE IN PQ: 0 UNCOVERED: 0
PSCL2 COMMIT LATE MSHR PREFETCHES: 0
PSCL2 MPKI TOTAL: 0 MSHR LATE: 0 PQ LATE: 0 COMMIT LATE: 0 MISSED OPPORTUNITY: 0 UNCOVERED: 0
PSCL2 PREFETCHES SAME FILL-ORIGIN LEVEL: 0 DIFFERENT FILL-ORIGIN LEVEL: 0

LLC SPEC fills:          0  NON-SPEC fills:     134025
LLC Test counter :          0
LLC Leapfrog:          0
LLC MSHR merge:          0
LLC TOTAL     ACCESS:    5332387  HIT:    1163410  MISS:    4168977  HIT %:    21.8178  MISS %:    78.1822   MPKI: 20.8449
LLC LOAD      TOTAL       ACCESS:     500397  HIT:     154788  MISS:     345609  HIT %:     30.933  MISS %:     69.067   MPKI: 1.72805
LLC LOAD      NON_SPEC    ACCESS:     170495  HIT:      36470  MISS:     134025  HIT %:    21.3907  MISS %:    78.6093   MPKI: 0.670125
LLC LOAD      SPEC        ACCESS:     329902  HIT:     118318  MISS:     211584  HIT %:    35.8646  MISS %:    64.1354   MPKI: 1.05792
LLC PREFETCH  NON_SPEC    ACCESS:    4470101  HIT:     898411  MISS:    3571690  HIT %:    20.0982  MISS %:    79.9018   MPKI: 17.8585
LLC WRITEBACK NON_SPEC    ACCESS:        125  HIT:        125  MISS:          0  HIT %:        100  MISS %:          0   MPKI: 0
LLC CLEAN_EVICTION NON_SPEC    ACCESS:     360686  HIT:     109642  MISS:     251044  HIT %:    30.3982  MISS %:    69.6018   MPKI: 1.25522
LLC COMMIT LOAD NON_SPEC    ACCESS:        506  HIT:        236  MISS:        270  HIT %:    46.6403  MISS %:    53.3597   MPKI: 0.00135
LLC LOAD TRANSLATION NON_SPEC    ACCESS:        572  HIT:        208  MISS:        364  HIT %:    36.3636  MISS %:    63.6364   MPKI: 0.00182
LLC PREFETCH  REQUESTED:          0  ISSUED:          0  USEFUL:       1455  USELESS:    3570475
LLC USEFUL LOAD PREFETCHES:       1455 PREFETCH ISSUED TO LOWER LEVEL:    3571695  ACCURACY: 0.040737
LLC TIMELY PREFETCHES:       1455 LATE PREFETCHES: 0 DROPPED PREFETCHES: 0
LLC COMMIT LATE PREFETCHES: 0 MISSED OPPORTUNITY: 0 LATE IN PQ: 0 UNCOVERED: 0
LLC COMMIT LATE MSHR PREFETCHES: 0
LLC MPKI TOTAL: 1.72805 MSHR LATE: 0 PQ LATE: 0 COMMIT LATE: 0 MISSED OPPORTUNITY: 0 UNCOVERED: 0
LLC PREFETCHES SAME FILL-ORIGIN LEVEL: 0 DIFFERENT FILL-ORIGIN LEVEL: 0
LLC AVERAGE MISS LATENCY: 96.1664 cycles
LLC AVERAGE MISS LATENCY LOAD: 82.8784 cycles
LLC AVERAGE MISS LATENCY PREFETCH: 104.206 cycles
LLC AVERAGE MSHR OCCUPANCY: 1.30605
LLC MSHR FULL: 0
LLC RQ	ACCESS:     501486	FORWARD:          0	MERGED:          0	TO_CACHE:     501475
LLC WQ	ACCESS:     360811	FORWARD:         11	MERGED:          0	TO_CACHE:     360811
LLC PQ	ACCESS:    4470106	FORWARD:          0	MERGED:          0	TO_CACHE:    4470106

LLC Dense regions hint to LLC: 0

RAW hits: 289
Loads Generated: 59779896
Loads sent to L1D: 59779605
Stores Generated: 3538724
Stores sent to L1D: 3538725
Major fault: 0 Minor fault: 1485
Allocated PAGES: 1485
Total Load insts: 74725365
Total Non-spec loads: 7757434
Percentage of speculative loads: 89.6187

LeapFrogging counter: 0
Commit hits: 23916183 miss: 28456513
Commit hit %: 45.6654 miss %: 54.3346
Commits not translated: 0
Loads retired: 603945
Stores retired: 3538725
Cache fills: 603945
L1D response latency: 82.0568 cycles
Load retirement latency: 114.801 cycles
OOO test counter: 0
Discarded buffer inserts: 23916183 hits: 15585 hit %: 0.0651651
Filter prediction accuracy: 99.877
Speculative prefetch buffer size: 0
CPU 0 L1D PC-based stride prefetcher final stats
Degree: 3

DRAM Statistics
 CHANNEL 0
 RQ ROW_BUFFER_HIT:    2965576  ROW_BUFFER_MISS:     952358
 DBUS_CONGESTED:      15561
 WQ ROW_BUFFER_HIT:      26026  ROW_BUFFER_MISS:     255104  FULL:          0

 AVG_CONGESTED_CYCLE: 4
 All warmup complete: 2
Channel 0 Bank busy for read cycles: 0
Channel 0 Bank busy for write cycles: 0
Channel 0
Rank 0
0banks busy for read cycles: 80906363
0banks busy for write cycles: 99903
1banks busy for read cycles: 33724548
1banks busy for write cycles: 17052455
2banks busy for read cycles: 19442609
2banks busy for write cycles: 12058368
3banks busy for read cycles: 14522235
3banks busy for write cycles: 7475570
4banks busy for read cycles: 16924249
4banks busy for write cycles: 3454224
5banks busy for read cycles: 9112883
5banks busy for write cycles: 1074625
6banks busy for read cycles: 5365169
6banks busy for write cycles: 250202
7banks busy for read cycles: 1356759
7banks busy for write cycles: 96357
8banks busy for read cycles: 2512631
8banks busy for write cycles: 33278

CPU 0 Branch Prediction Accuracy: 99.9949% MPKI: 0.01412 Average ROB Occupancy at Mispredict: 108.217
Branch types
NOT_BRANCH: 144641709 72.3209%
BRANCH_DIRECT_JUMP: 138 6.9e-05%
BRANCH_INDIRECT: 0 0%
BRANCH_CONDITIONAL: 51820077 25.91%
BRANCH_DIRECT_CALL: 884507 0.442254%
BRANCH_INDIRECT_CALL: 884370 0.442185%
BRANCH_RETURN: 1768876 0.884438%
BRANCH_OTHER: 0 0%

DRAM PAGES: 1048576
Allocated PAGES: 1485
