
*** ChampSim Multicore Out-of-Order Simulator ***

Warmup Instructions: 50000000
Simulation Instructions: 200000000
Number of CPUs: 1
LLC sets: 2048
LLC ways: 16
L0D sets: 16
L0D ways: 2
ROB size: 352
LQ size: 128
SQ size: 72
Secure Berti: OFF
Berti: OFF
Berti Fill: OFF
On commit prefetching: OFF
Hit-based filter: ON
Time-guarding: ON
Free-slotting: ON
Leap-frogging: ON
Train prefetcher on L0D bypass: OFF
No translation penalty for prefetchers: OFF
Prefetch to L0D only: OFF
Prefetch to L1D only: OFF
Clean evictions: ON
Commit loads: ON
Commit write: ON
Fill commit loads to L2C, LLC: ON
DRAM IO FREQUENCY: 6400
ROB SIZE: 352
Off-chip DRAM Size: 4096 MB Channels: 1 Width: 64-bit Data Rate: 6400 MT/s
CPU 0 runs /home/sumon/secure_berti/GhostMinion/../../traces/spec/649.fotonik3d_s-8225B.champsimtrace.xz
.xz
BTB has LRU replacement policy
ITLB has LRU replacement policy
DTLB has LRU replacement policy
STLB has LRU replacement policy
L1I has LRU replacement policy
L0D has LRU replacement policy
CPU 0 L1D IP-based stride prefetcher
L1D has LRU replacement policy
L2C has LRU replacement policy
LLC has LRU replacement policy
Heartbeat CPU 0 instructions: 10000000 cycles: 3144474 heartbeat IPC: 3.18018 cumulative IPC: 3.18018 (Simulation time: 0 hr 0 min 26 sec) 
Heartbeat CPU 0 instructions: 20000001 cycles: 6288905 heartbeat IPC: 3.18023 cumulative IPC: 3.1802 (Simulation time: 0 hr 0 min 53 sec) 
Heartbeat CPU 0 instructions: 30000000 cycles: 9433164 heartbeat IPC: 3.1804 cumulative IPC: 3.18027 (Simulation time: 0 hr 1 min 20 sec) 
Heartbeat CPU 0 instructions: 40000002 cycles: 12577570 heartbeat IPC: 3.18025 cumulative IPC: 3.18026 (Simulation time: 0 hr 1 min 46 sec) 
Heartbeat CPU 0 instructions: 50000001 cycles: 15721879 heartbeat IPC: 3.18035 cumulative IPC: 3.18028 (Simulation time: 0 hr 2 min 13 sec) 

Warmup complete CPU 0 instructions: 50000001 cycles: 15721879 (Simulation time: 0 hr 2 min 13 sec) 

Heartbeat CPU 0 instructions: 60000000 cycles: 25755289 heartbeat IPC: 0.99667 cumulative IPC: 0.99667 (Simulation time: 0 hr 2 min 44 sec) 
Heartbeat CPU 0 instructions: 70000001 cycles: 35784550 heartbeat IPC: 0.997083 cumulative IPC: 0.996876 (Simulation time: 0 hr 3 min 14 sec) 
Heartbeat CPU 0 instructions: 80000002 cycles: 45811134 heartbeat IPC: 0.997349 cumulative IPC: 0.997034 (Simulation time: 0 hr 3 min 45 sec) 
Heartbeat CPU 0 instructions: 90000003 cycles: 55841115 heartbeat IPC: 0.997011 cumulative IPC: 0.997028 (Simulation time: 0 hr 4 min 15 sec) 
Heartbeat CPU 0 instructions: 100000000 cycles: 65865853 heartbeat IPC: 0.997532 cumulative IPC: 0.997129 (Simulation time: 0 hr 4 min 45 sec) 
Heartbeat CPU 0 instructions: 110000000 cycles: 75895594 heartbeat IPC: 0.997035 cumulative IPC: 0.997113 (Simulation time: 0 hr 5 min 15 sec) 
Heartbeat CPU 0 instructions: 120000002 cycles: 85919226 heartbeat IPC: 0.997643 cumulative IPC: 0.997189 (Simulation time: 0 hr 5 min 45 sec) 
Heartbeat CPU 0 instructions: 130000003 cycles: 95949549 heartbeat IPC: 0.996977 cumulative IPC: 0.997162 (Simulation time: 0 hr 6 min 15 sec) 
Heartbeat CPU 0 instructions: 140000002 cycles: 105979030 heartbeat IPC: 0.99706 cumulative IPC: 0.997151 (Simulation time: 0 hr 6 min 45 sec) 
Heartbeat CPU 0 instructions: 150000003 cycles: 116009399 heartbeat IPC: 0.996972 cumulative IPC: 0.997133 (Simulation time: 0 hr 7 min 15 sec) 
Heartbeat CPU 0 instructions: 160000000 cycles: 126037995 heartbeat IPC: 0.997148 cumulative IPC: 0.997134 (Simulation time: 0 hr 7 min 45 sec) 
Heartbeat CPU 0 instructions: 170000001 cycles: 136069643 heartbeat IPC: 0.996845 cumulative IPC: 0.99711 (Simulation time: 0 hr 8 min 15 sec) 
Heartbeat CPU 0 instructions: 180000000 cycles: 146097802 heartbeat IPC: 0.997192 cumulative IPC: 0.997117 (Simulation time: 0 hr 8 min 45 sec) 
Heartbeat CPU 0 instructions: 190000001 cycles: 156128629 heartbeat IPC: 0.996927 cumulative IPC: 0.997103 (Simulation time: 0 hr 9 min 15 sec) 
Heartbeat CPU 0 instructions: 200000003 cycles: 166157890 heartbeat IPC: 0.997083 cumulative IPC: 0.997102 (Simulation time: 0 hr 9 min 45 sec) 
Heartbeat CPU 0 instructions: 210000000 cycles: 176189293 heartbeat IPC: 0.996869 cumulative IPC: 0.997087 (Simulation time: 0 hr 10 min 16 sec) 
Heartbeat CPU 0 instructions: 220000000 cycles: 186214787 heartbeat IPC: 0.997457 cumulative IPC: 0.997109 (Simulation time: 0 hr 10 min 46 sec) 
Heartbeat CPU 0 instructions: 230000000 cycles: 196241867 heartbeat IPC: 0.997299 cumulative IPC: 0.997119 (Simulation time: 0 hr 11 min 16 sec) 
Heartbeat CPU 0 instructions: 240000003 cycles: 206272931 heartbeat IPC: 0.996904 cumulative IPC: 0.997108 (Simulation time: 0 hr 11 min 47 sec) 
Heartbeat CPU 0 instructions: 250000000 cycles: 216299742 heartbeat IPC: 0.997326 cumulative IPC: 0.997119 (Simulation time: 0 hr 12 min 17 sec) 
Finished CPU 0 instructions: 200000003 cycles: 200577864 cumulative IPC: 0.997119 (Simulation time: 0 hr 12 min 17 sec) 
 Instruction ID: 250000051

ChampSim completed all CPUs

Region of Interest Statistics

CPU 0 cumulative IPC: 0.997119 instructions: 200000003 cycles: 200577864
ITLB SPEC fills:          0  NON-SPEC fills:          0
ITLB Test counter :          0
ITLB Leapfrog:          0
ITLB MSHR merge:          0
ITLB TOTAL     ACCESS:   28070601  HIT:   28070601  MISS:          0  HIT %:        100  MISS %:          0   MPKI: 0
ITLB LOAD TRANSLATION NON_SPEC    ACCESS:   28070601  HIT:   28070601  MISS:          0  HIT %:        100  MISS %:          0   MPKI: 0
ITLB PREFETCH  REQUESTED:          0  ISSUED:          0  USEFUL:          0  USELESS:          0
ITLB USEFUL LOAD PREFETCHES:          0 PREFETCH ISSUED TO LOWER LEVEL:          0  ACCURACY: -nan
ITLB TIMELY PREFETCHES:          0 LATE PREFETCHES: 0 DROPPED PREFETCHES: 0
ITLB COMMIT LATE PREFETCHES: 0 MISSED OPPORTUNITY: 0 LATE IN PQ: 0 UNCOVERED: 0
ITLB COMMIT LATE MSHR PREFETCHES: 0
ITLB MPKI TOTAL: 0 MSHR LATE: 0 PQ LATE: 0 COMMIT LATE: 0 MISSED OPPORTUNITY: 0 UNCOVERED: 0
ITLB PREFETCHES SAME FILL-ORIGIN LEVEL: 0 DIFFERENT FILL-ORIGIN LEVEL: 0
ITLB AVERAGE MISS LATENCY: -nan cycles
ITLB AVERAGE MISS LATENCY LOAD: -nan cycles
ITLB AVERAGE MISS LATENCY PREFETCH: -nan cycles
ITLB AVERAGE MSHR OCCUPANCY: 0
ITLB MSHR FULL: 0
ITLB RQ	ACCESS:   35090754	FORWARD:          0	MERGED:    7020153	TO_CACHE:   28070601

DTLB SPEC fills:          0  NON-SPEC fills:          0
DTLB Test counter :          0
DTLB Leapfrog:          0
DTLB MSHR merge:          0
DTLB TOTAL     ACCESS:   36632136  HIT:   36585291  MISS:      46845  HIT %:    99.8721  MISS %:    0.12788   MPKI: 0.234225
DTLB LOAD TRANSLATION NON_SPEC    ACCESS:   36632136  HIT:   36585291  MISS:      46845  HIT %:    99.8721  MISS %:    0.12788   MPKI: 0.234225
DTLB PREFETCH  REQUESTED:          0  ISSUED:          0  USEFUL:          0  USELESS:          0
DTLB USEFUL LOAD PREFETCHES:          0 PREFETCH ISSUED TO LOWER LEVEL:          0  ACCURACY: -nan
DTLB TIMELY PREFETCHES:          0 LATE PREFETCHES: 0 DROPPED PREFETCHES: 0
DTLB COMMIT LATE PREFETCHES: 0 MISSED OPPORTUNITY: 0 LATE IN PQ: 0 UNCOVERED: 0
DTLB COMMIT LATE MSHR PREFETCHES: 0
DTLB MPKI TOTAL: 0 MSHR LATE: 0 PQ LATE: 0 COMMIT LATE: 0 MISSED OPPORTUNITY: 0 UNCOVERED: 0
DTLB PREFETCHES SAME FILL-ORIGIN LEVEL: 0 DIFFERENT FILL-ORIGIN LEVEL: 0
DTLB AVERAGE MISS LATENCY: 115.047 cycles
DTLB AVERAGE MISS LATENCY LOAD: -nan cycles
DTLB AVERAGE MISS LATENCY PREFETCH: -nan cycles
DTLB AVERAGE MSHR OCCUPANCY: 0.00691893
DTLB MSHR FULL: 0
DTLB RQ	ACCESS:   57368625	FORWARD:          0	MERGED:   20733761	TO_CACHE:   36634864

STLB SPEC fills:          0  NON-SPEC fills:          0
STLB Test counter :          0
STLB Leapfrog:          0
STLB MSHR merge:          0
STLB TOTAL     ACCESS:    4720016  HIT:    4692561  MISS:      27455  HIT %:    99.4183  MISS %:   0.581672   MPKI: 0.137275
STLB LOAD TRANSLATION NON_SPEC    ACCESS:      46845  HIT:      19390  MISS:      27455  HIT %:    41.3918  MISS %:    58.6082   MPKI: 0.137275
STLB TRANSLATION FROM L1D PREFETCHER NON_SPEC    ACCESS:    4673171  HIT:    4673171  MISS:          0  HIT %:        100  MISS %:          0   MPKI: 0
STLB PREFETCH  REQUESTED:          0  ISSUED:          0  USEFUL:          0  USELESS:          0
STLB USEFUL LOAD PREFETCHES:          0 PREFETCH ISSUED TO LOWER LEVEL:          0  ACCURACY: -nan
STLB TIMELY PREFETCHES:          0 LATE PREFETCHES: 0 DROPPED PREFETCHES: 0
STLB COMMIT LATE PREFETCHES: 0 MISSED OPPORTUNITY: 0 LATE IN PQ: 0 UNCOVERED: 0
STLB COMMIT LATE MSHR PREFETCHES: 0
STLB MPKI TOTAL: 0 MSHR LATE: 0 PQ LATE: 0 COMMIT LATE: 0 MISSED OPPORTUNITY: 0 UNCOVERED: 0
STLB PREFETCHES SAME FILL-ORIGIN LEVEL: 0 DIFFERENT FILL-ORIGIN LEVEL: 0
STLB AVERAGE MISS LATENCY: 180.889 cycles
STLB AVERAGE MISS LATENCY LOAD: -nan cycles
STLB AVERAGE MISS LATENCY PREFETCH: -nan cycles
STLB AVERAGE MSHR OCCUPANCY: 0.0016144
STLB MSHR FULL: 0
STLB RQ	ACCESS:   13777027	FORWARD:          0	MERGED:    9057011	TO_CACHE:    4720016

STLB Hit, L1D data hit: 0
STLB Hit, L2C data hit: 0
STLB Hit, LLC data hit: 0
STLB Hit, LLC data miss: 0
STLB STLB hints to L2: 0
L0D SPEC fills:   27569655  NON-SPEC fills:          0
L0D TimeGuard Request with older TS:      12219 Restricted eviction:        651 read:     235198
L0D Test counter :          0
L0D Leapfrog:          0
L0D MSHR merge:    5765466
L0D TOTAL     ACCESS:   37562065  HIT:    4307003  MISS:   33255062  HIT %:    11.4664  MISS %:    88.5336   MPKI: 166.275
L0D LOAD      TOTAL       ACCESS:   37562065  HIT:    4307003  MISS:   33255062  HIT %:    11.4664  MISS %:    88.5336   MPKI: 166.275
L0D LOAD      NON_SPEC    ACCESS:    5700184  HIT:      15406  MISS:    5684778  HIT %:   0.270272  MISS %:    99.7297   MPKI: 28.4239
L0D LOAD      SPEC        ACCESS:   31861881  HIT:    4291597  MISS:   27570284  HIT %:    13.4694  MISS %:    86.5306   MPKI: 137.851
L0D PREFETCH  REQUESTED:          0  ISSUED:          0  USEFUL:          0  USELESS:          0
L0D USEFUL LOAD PREFETCHES:          0 PREFETCH ISSUED TO LOWER LEVEL:          0  ACCURACY: -nan
L0D TIMELY PREFETCHES:          0 LATE PREFETCHES: 0 DROPPED PREFETCHES: 0
L0D COMMIT LATE PREFETCHES: 0 MISSED OPPORTUNITY: 0 LATE IN PQ: 0 UNCOVERED: 0
L0D COMMIT LATE MSHR PREFETCHES: 0
L0D MPKI TOTAL: 195.103 MSHR LATE: 0 PQ LATE: 0 COMMIT LATE: 0 MISSED OPPORTUNITY: 0 UNCOVERED: 0
L0D PREFETCHES SAME FILL-ORIGIN LEVEL: 0 DIFFERENT FILL-ORIGIN LEVEL: 0
L0D AVERAGE MISS LATENCY: 5.92897 cycles
L0D AVERAGE MISS LATENCY LOAD: 5.92897 cycles
L0D AVERAGE MISS LATENCY PREFETCH: -nan cycles
L0D AVERAGE MSHR OCCUPANCY: 1.24503
L0D MSHR FULL: 3.6928e-07
L0D RQ	ACCESS:   70165732	FORWARD:          0	MERGED:   26838203	TO_CACHE:   43327529
L0D WQ	ACCESS:   14041096	FORWARD:          0	MERGED:          0	TO_CACHE:   14041096

L1D SPEC fills:          0  NON-SPEC fills:      73370
L1D Test counter :          0
L1D Leapfrog:          0
L1D MSHR merge:     112403
L1D TOTAL     ACCESS:   57541569  HIT:   54744221  MISS:    2797348  HIT %:    95.1386  MISS %:    4.86144   MPKI: 13.9867
L1D LOAD      TOTAL       ACCESS:   33254253  HIT:   33037691  MISS:     216562  HIT %:    99.3488  MISS %:   0.651231   MPKI: 1.08281
L1D LOAD      NON_SPEC    ACCESS:    5684772  HIT:    5611402  MISS:      73370  HIT %:    98.7094  MISS %:    1.29064   MPKI: 0.36685
L1D LOAD      SPEC        ACCESS:   27569481  HIT:   27426289  MISS:     143192  HIT %:    99.4806  MISS %:   0.519386   MPKI: 0.71596
L1D RFO       NON_SPEC    ACCESS:   13986139  HIT:   13983143  MISS:       2996  HIT %:    99.9786  MISS %:  0.0214212   MPKI: 0.01498
L1D PREFETCH  NON_SPEC    ACCESS:    9636680  HIT:    7199371  MISS:    2437309  HIT %:     74.708  MISS %:     25.292   MPKI: 12.1865
L1D COMMIT LOAD NON_SPEC    ACCESS:     501809  HIT:     501473  MISS:        336  HIT %:     99.933  MISS %:  0.0669577   MPKI: 0.00168
L1D COMMIT WRITE NON_SPEC    ACCESS:     162688  HIT:      22543  MISS:     140145  HIT %:    13.8566  MISS %:    86.1434   MPKI: 0.700725
L1D PREFETCH  REQUESTED:   13901611  ISSUED:   13901611  USEFUL:    2430831  USELESS:       6480
L1D USEFUL LOAD PREFETCHES:    2430831 PREFETCH ISSUED TO LOWER LEVEL:    2549074  ACCURACY: 95.3613
L1D TIMELY PREFETCHES:    2430831 LATE PREFETCHES: 111595 DROPPED PREFETCHES: 0
L1D COMMIT LATE PREFETCHES: 0 MISSED OPPORTUNITY: 0 LATE IN PQ: 0 UNCOVERED: 0
L1D COMMIT LATE MSHR PREFETCHES: 0
L1D MPKI TOTAL: 1.08685 MSHR LATE: 0.557975 PQ LATE: 0 COMMIT LATE: 0 MISSED OPPORTUNITY: 0 UNCOVERED: 0
L1D PREFETCHES SAME FILL-ORIGIN LEVEL: 2548905 DIFFERENT FILL-ORIGIN LEVEL: 169
L1D AVERAGE MISS LATENCY: 130.814 cycles
L1D AVERAGE MISS LATENCY LOAD: 115.025 cycles
L1D AVERAGE MISS LATENCY PREFETCH: 139.879 cycles
L1D AVERAGE MSHR OCCUPANCY: 1.84759
L1D MSHR FULL: 0
L1D RQ	ACCESS:   34057369	FORWARD:          0	MERGED:     300373	TO_CACHE:   33756938
L1D WQ	ACCESS:   14203786	FORWARD:         58	MERGED:      47821	TO_CACHE:   14155965
L1D PQ	ACCESS:   13901611	FORWARD:          0	MERGED:     171429	TO_CACHE:   13730182

L1D UNIQUE REGIONS ACCESSED: 0
L1D REGIONS CONFLICTS: 0
L1D Cross Page Prefetch Requests: 0
L1D Same Page Prefetch Requests: 15324061
L1D ROI Sum of L1D PQ occupancy: 183412736
L1D PREFETCHES PUSHED FROM L2C: 0
L1I SPEC fills:          0  NON-SPEC fills:          0
L1I Test counter :          0
L1I Leapfrog:          0
L1I MSHR merge:          0
L1I TOTAL     ACCESS:   35090753  HIT:   35090753  MISS:          0  HIT %:        100  MISS %:          0   MPKI: 0
L1I LOAD      TOTAL       ACCESS:   35090753  HIT:   35090753  MISS:          0  HIT %:        100  MISS %:          0   MPKI: 0
L1I LOAD      NON_SPEC    ACCESS:   35090753  HIT:   35090753  MISS:          0  HIT %:        100  MISS %:          0   MPKI: 0
L1I PREFETCH  REQUESTED:          0  ISSUED:          0  USEFUL:          0  USELESS:          0
L1I USEFUL LOAD PREFETCHES:          0 PREFETCH ISSUED TO LOWER LEVEL:          0  ACCURACY: -nan
L1I TIMELY PREFETCHES:          0 LATE PREFETCHES: 0 DROPPED PREFETCHES: 0
L1I COMMIT LATE PREFETCHES: 0 MISSED OPPORTUNITY: 0 LATE IN PQ: 0 UNCOVERED: 0
L1I COMMIT LATE MSHR PREFETCHES: 0
L1I MPKI TOTAL: 0 MSHR LATE: 0 PQ LATE: 0 COMMIT LATE: 0 MISSED OPPORTUNITY: 0 UNCOVERED: 0
L1I PREFETCHES SAME FILL-ORIGIN LEVEL: 0 DIFFERENT FILL-ORIGIN LEVEL: 0
L1I AVERAGE MISS LATENCY: -nan cycles
L1I AVERAGE MISS LATENCY LOAD: -nan cycles
L1I AVERAGE MISS LATENCY PREFETCH: -nan cycles
L1I AVERAGE MSHR OCCUPANCY: 0
L1I MSHR FULL: 0
L1I RQ	ACCESS:   45652851	FORWARD:          0	MERGED:   10562097	TO_CACHE:   35090754

BTB SPEC fills:          0  NON-SPEC fills:          0
BTB Test counter :          0
BTB Leapfrog:          0
BTB MSHR merge:          0
BTB TOTAL     ACCESS:    3509173  HIT:    3509164  MISS:          9  HIT %:    99.9997  MISS %: 0.000256471   MPKI: 4.5e-05
BTB BRANCH_DIRECT_JUMP	ACCESS:        876  HIT:        874  MISS:          2
BTB BRANCH_INDIRECT	ACCESS:          0  HIT:          0  MISS:          0
BTB BRANCH_CONDITIONAL	ACCESS:    3506545  HIT:    3506542  MISS:          3
BTB BRANCH_DIRECT_CALL	ACCESS:        876  HIT:        874  MISS:          2
BTB BRANCH_INDIRECT_CALL	ACCESS:          0  HIT:          0  MISS:          0
BTB BRANCH_RETURN	ACCESS:        876  HIT:        874  MISS:          2
BTB BRANCH_OTHER ACCESS:          0  HIT:          0  MISS:          0

L2C SPEC fills:          0  NON-SPEC fills:      29052
L2C Test counter :          0
L2C Leapfrog:          0
L2C MSHR merge:          0
L2C TOTAL     ACCESS:    4559867  HIT:    2714067  MISS:    1845800  HIT %:    59.5207  MISS %:    40.4793   MPKI: 9.229
L2C LOAD      TOTAL       ACCESS:     104967  HIT:      24231  MISS:      80736  HIT %:    23.0844  MISS %:    76.9156   MPKI: 0.40368
L2C LOAD      NON_SPEC    ACCESS:      40515  HIT:      11463  MISS:      29052  HIT %:    28.2932  MISS %:    71.7068   MPKI: 0.14526
L2C LOAD      SPEC        ACCESS:      64452  HIT:      12768  MISS:      51684  HIT %:    19.8101  MISS %:    80.1899   MPKI: 0.25842
L2C RFO       NON_SPEC    ACCESS:       2996  HIT:       1543  MISS:       1453  HIT %:     51.502  MISS %:     48.498   MPKI: 0.007265
L2C PREFETCH  NON_SPEC    ACCESS:    2549039  HIT:     839599  MISS:    1709440  HIT %:    32.9379  MISS %:    67.0621   MPKI: 8.5472
L2C WRITEBACK NON_SPEC    ACCESS:    1631606  HIT:    1631606  MISS:          0  HIT %:        100  MISS %:          0   MPKI: 0
L2C CLEAN_EVICTION NON_SPEC    ACCESS:     133737  HIT:      83143  MISS:      50594  HIT %:     62.169  MISS %:     37.831   MPKI: 0.25297
L2C COMMIT LOAD NON_SPEC    ACCESS:        336  HIT:        301  MISS:         35  HIT %:    89.5833  MISS %:    10.4167   MPKI: 0.000175
L2C LOAD TRANSLATION NON_SPEC    ACCESS:     137186  HIT:     133644  MISS:       3542  HIT %:    97.4181  MISS %:     2.5819   MPKI: 0.01771
L2C PREFETCH  REQUESTED:          0  ISSUED:          0  USEFUL:       3201  USELESS:    1704726
L2C USEFUL LOAD PREFETCHES:       3201 PREFETCH ISSUED TO LOWER LEVEL:    1709441  ACCURACY: 0.187254
L2C TIMELY PREFETCHES:       3201 LATE PREFETCHES: 0 DROPPED PREFETCHES: 0
L2C COMMIT LATE PREFETCHES: 0 MISSED OPPORTUNITY: 0 LATE IN PQ: 0 UNCOVERED: 0
L2C COMMIT LATE MSHR PREFETCHES: 0
L2C MPKI TOTAL: 0.40368 MSHR LATE: 0 PQ LATE: 0 COMMIT LATE: 0 MISSED OPPORTUNITY: 0 UNCOVERED: 0
L2C PREFETCHES SAME FILL-ORIGIN LEVEL: 79 DIFFERENT FILL-ORIGIN LEVEL: 0
L2C AVERAGE MISS LATENCY: 185.454 cycles
L2C AVERAGE MISS LATENCY LOAD: 164.822 cycles
L2C AVERAGE MISS LATENCY PREFETCH: 192.024 cycles
L2C AVERAGE MSHR OCCUPANCY: 0.352303
L2C MSHR FULL: 0
L2C RQ	ACCESS:     245485	FORWARD:          0	MERGED:          0	TO_CACHE:     245485
L2C WQ	ACCESS:    1765344	FORWARD:          0	MERGED:          1	TO_CACHE:    1765343
L2C PQ	ACCESS:    2549074	FORWARD:          0	MERGED:          0	TO_CACHE:    2549074

L2C Instructions Evicting Data 0
L2C Translations Evicting Data 3542
L2C Data Evicting Data 1736544
L2C Instructions Evicting Instructions 0
L2C Translations Evicting Instructions 0
L2C Data Evicting Instructions 0
L2C Instructions Evicting Translations 0
L2C Translations Evicting Translations 0
L2C Data Evicting Translations 3436
L2C Dense regions hint from L2: 0
PSCL5 SPEC fills:          0  NON-SPEC fills:          0
PSCL5 Test counter :          0
PSCL5 Leapfrog:          0
PSCL5 MSHR merge:          0
PSCL5 TOTAL     ACCESS:          0  HIT:          0  MISS:          0  HIT %:       -nan  MISS %:       -nan   MPKI: 0
PSCL5 PREFETCH  REQUESTED:          0  ISSUED:          0  USEFUL:          0  USELESS:          0
PSCL5 USEFUL LOAD PREFETCHES:          0 PREFETCH ISSUED TO LOWER LEVEL:          0  ACCURACY: -nan
PSCL5 TIMELY PREFETCHES:          0 LATE PREFETCHES: 0 DROPPED PREFETCHES: 0
PSCL5 COMMIT LATE PREFETCHES: 0 MISSED OPPORTUNITY: 0 LATE IN PQ: 0 UNCOVERED: 0
PSCL5 COMMIT LATE MSHR PREFETCHES: 0
PSCL5 MPKI TOTAL: 0 MSHR LATE: 0 PQ LATE: 0 COMMIT LATE: 0 MISSED OPPORTUNITY: 0 UNCOVERED: 0
PSCL5 PREFETCHES SAME FILL-ORIGIN LEVEL: 0 DIFFERENT FILL-ORIGIN LEVEL: 0

PSCL4 SPEC fills:          0  NON-SPEC fills:          0
PSCL4 Test counter :          0
PSCL4 Leapfrog:          0
PSCL4 MSHR merge:          0
PSCL4 TOTAL     ACCESS:          0  HIT:          0  MISS:          0  HIT %:       -nan  MISS %:       -nan   MPKI: 0
PSCL4 PREFETCH  REQUESTED:          0  ISSUED:          0  USEFUL:          0  USELESS:          0
PSCL4 USEFUL LOAD PREFETCHES:          0 PREFETCH ISSUED TO LOWER LEVEL:          0  ACCURACY: -nan
PSCL4 TIMELY PREFETCHES:          0 LATE PREFETCHES: 0 DROPPED PREFETCHES: 0
PSCL4 COMMIT LATE PREFETCHES: 0 MISSED OPPORTUNITY: 0 LATE IN PQ: 0 UNCOVERED: 0
PSCL4 COMMIT LATE MSHR PREFETCHES: 0
PSCL4 MPKI TOTAL: 0 MSHR LATE: 0 PQ LATE: 0 COMMIT LATE: 0 MISSED OPPORTUNITY: 0 UNCOVERED: 0
PSCL4 PREFETCHES SAME FILL-ORIGIN LEVEL: 0 DIFFERENT FILL-ORIGIN LEVEL: 0

PSCL3 SPEC fills:          0  NON-SPEC fills:          0
PSCL3 Test counter :          0
PSCL3 Leapfrog:          0
PSCL3 MSHR merge:          0
PSCL3 TOTAL     ACCESS:          0  HIT:          0  MISS:          0  HIT %:       -nan  MISS %:       -nan   MPKI: 0
PSCL3 PREFETCH  REQUESTED:          0  ISSUED:          0  USEFUL:          0  USELESS:          0
PSCL3 USEFUL LOAD PREFETCHES:          0 PREFETCH ISSUED TO LOWER LEVEL:          0  ACCURACY: -nan
PSCL3 TIMELY PREFETCHES:          0 LATE PREFETCHES: 0 DROPPED PREFETCHES: 0
PSCL3 COMMIT LATE PREFETCHES: 0 MISSED OPPORTUNITY: 0 LATE IN PQ: 0 UNCOVERED: 0
PSCL3 COMMIT LATE MSHR PREFETCHES: 0
PSCL3 MPKI TOTAL: 0 MSHR LATE: 0 PQ LATE: 0 COMMIT LATE: 0 MISSED OPPORTUNITY: 0 UNCOVERED: 0
PSCL3 PREFETCHES SAME FILL-ORIGIN LEVEL: 0 DIFFERENT FILL-ORIGIN LEVEL: 0

PSCL2 SPEC fills:          0  NON-SPEC fills:          0
PSCL2 Test counter :          0
PSCL2 Leapfrog:          0
PSCL2 MSHR merge:          0
PSCL2 TOTAL     ACCESS:          0  HIT:          0  MISS:          0  HIT %:       -nan  MISS %:       -nan   MPKI: 0
PSCL2 PREFETCH  REQUESTED:          0  ISSUED:          0  USEFUL:          0  USELESS:          0
PSCL2 USEFUL LOAD PREFETCHES:          0 PREFETCH ISSUED TO LOWER LEVEL:          0  ACCURACY: -nan
PSCL2 TIMELY PREFETCHES:          0 LATE PREFETCHES: 0 DROPPED PREFETCHES: 0
PSCL2 COMMIT LATE PREFETCHES: 0 MISSED OPPORTUNITY: 0 LATE IN PQ: 0 UNCOVERED: 0
PSCL2 COMMIT LATE MSHR PREFETCHES: 0
PSCL2 MPKI TOTAL: 0 MSHR LATE: 0 PQ LATE: 0 COMMIT LATE: 0 MISSED OPPORTUNITY: 0 UNCOVERED: 0
PSCL2 PREFETCHES SAME FILL-ORIGIN LEVEL: 0 DIFFERENT FILL-ORIGIN LEVEL: 0

LLC SPEC fills:          0  NON-SPEC fills:      26499
LLC Test counter :          0
LLC Leapfrog:          0
LLC MSHR merge:          0
LLC TOTAL     ACCESS:    3555944  HIT:    1741082  MISS:    1814862  HIT %:    48.9626  MISS %:    51.0374   MPKI: 9.07431
LLC LOAD      TOTAL       ACCESS:      80736  HIT:       7153  MISS:      73583  HIT %:    8.85974  MISS %:    91.1403   MPKI: 0.367915
LLC LOAD      NON_SPEC    ACCESS:      29052  HIT:       2553  MISS:      26499  HIT %:    8.78769  MISS %:    91.2123   MPKI: 0.132495
LLC LOAD      SPEC        ACCESS:      51684  HIT:       4600  MISS:      47084  HIT %:    8.90024  MISS %:    91.0998   MPKI: 0.23542
LLC RFO       NON_SPEC    ACCESS:       1452  HIT:       1450  MISS:          2  HIT %:    99.8623  MISS %:   0.137741   MPKI: 1e-05
LLC PREFETCH  NON_SPEC    ACCESS:    1709441  HIT:      19990  MISS:    1689451  HIT %:    1.16939  MISS %:    98.8306   MPKI: 8.44725
LLC WRITEBACK NON_SPEC    ACCESS:    1628169  HIT:    1628149  MISS:         20  HIT %:    99.9988  MISS %: 0.00122837   MPKI: 0.0001
LLC CLEAN_EVICTION NON_SPEC    ACCESS:     132569  HIT:      84306  MISS:      48263  HIT %:    63.5941  MISS %:    36.4059   MPKI: 0.241315
LLC COMMIT LOAD NON_SPEC    ACCESS:         35  HIT:         33  MISS:          2  HIT %:    94.2857  MISS %:    5.71429   MPKI: 1e-05
LLC LOAD TRANSLATION NON_SPEC    ACCESS:       3542  HIT:          1  MISS:       3541  HIT %:  0.0282326  MISS %:    99.9718   MPKI: 0.017705
LLC PREFETCH  REQUESTED:          0  ISSUED:          0  USEFUL:        329  USELESS:    1680656
LLC USEFUL LOAD PREFETCHES:        329 PREFETCH ISSUED TO LOWER LEVEL:    1689451  ACCURACY: 0.0194738
LLC TIMELY PREFETCHES:        329 LATE PREFETCHES: 0 DROPPED PREFETCHES: 0
LLC COMMIT LATE PREFETCHES: 0 MISSED OPPORTUNITY: 0 LATE IN PQ: 0 UNCOVERED: 0
LLC COMMIT LATE MSHR PREFETCHES: 0
LLC MPKI TOTAL: 0.367915 MSHR LATE: 0 PQ LATE: 0 COMMIT LATE: 0 MISSED OPPORTUNITY: 0 UNCOVERED: 0
LLC PREFETCHES SAME FILL-ORIGIN LEVEL: 0 DIFFERENT FILL-ORIGIN LEVEL: 0
LLC AVERAGE MISS LATENCY: 159.185 cycles
LLC AVERAGE MISS LATENCY LOAD: 154.22 cycles
LLC AVERAGE MISS LATENCY PREFETCH: 163.93 cycles
LLC AVERAGE MSHR OCCUPANCY: 0.381974
LLC MSHR FULL: 0
LLC RQ	ACCESS:      85766	FORWARD:          0	MERGED:          0	TO_CACHE:      85765
LLC WQ	ACCESS:    1760738	FORWARD:          1	MERGED:          0	TO_CACHE:    1760738
LLC PQ	ACCESS:    1709441	FORWARD:          0	MERGED:          0	TO_CACHE:    1709441

LLC Dense regions hint to LLC: 0

RAW hits: 3362
Loads Generated: 70169101
Loads sent to L1D: 70165732
Stores Generated: 14041092
Stores sent to L1D: 14041096
Major fault: 0 Minor fault: 34487
Allocated PAGES: 34487
Total Load insts: 87706899
Total Non-spec loads: 10249174
Percentage of speculative loads: 88.3143

LeapFrogging counter: 0
Commit hits: 27559097 miss: 33680281
Commit hit %: 45.0022 miss %: 54.9978
Commits not translated: 0
Loads retired: 216562
Stores retired: 14041096
Cache fills: 216562
L1D response latency: 115.025 cycles
Load retirement latency: 158.138 cycles
OOO test counter: 0
Discarded buffer inserts: 27559097 hits: 2834 hit %: 0.0102834
Filter prediction accuracy: 99.9993
Speculative prefetch buffer size: 0
CPU 0 L1D PC-based stride prefetcher final stats
Degree: 3

DRAM Statistics
 CHANNEL 0
 RQ ROW_BUFFER_HIT:     176146  ROW_BUFFER_MISS:    1590433
 DBUS_CONGESTED:        651
 WQ ROW_BUFFER_HIT:    1115868  ROW_BUFFER_MISS:     639818  FULL:          0

 AVG_CONGESTED_CYCLE: 5
 All warmup complete: 2
Channel 0 Bank busy for read cycles: 0
Channel 0 Bank busy for write cycles: 0
Channel 0
Rank 0
0banks busy for read cycles: 897559
0banks busy for write cycles: 7499
1banks busy for read cycles: 93458964
1banks busy for write cycles: 997303
2banks busy for read cycles: 46287392
2banks busy for write cycles: 1060285
3banks busy for read cycles: 8782123
3banks busy for write cycles: 1460404
4banks busy for read cycles: 5767727
4banks busy for write cycles: 1828851
5banks busy for read cycles: 2250709
5banks busy for write cycles: 2427953
6banks busy for read cycles: 94222
6banks busy for write cycles: 2664613
7banks busy for read cycles: 27718
7banks busy for write cycles: 4470036
8banks busy for read cycles: 3135
8banks busy for write cycles: 28091372

CPU 0 Branch Prediction Accuracy: 99.9751% MPKI: 0.00438 Average ROB Occupancy at Mispredict: 60.1438
Branch types
NOT_BRANCH: 196487432 98.2437%
BRANCH_DIRECT_JUMP: 876 0.000438%
BRANCH_INDIRECT: 0 0%
BRANCH_CONDITIONAL: 3509611 1.75481%
BRANCH_DIRECT_CALL: 876 0.000438%
BRANCH_INDIRECT_CALL: 0 0%
BRANCH_RETURN: 876 0.000438%
BRANCH_OTHER: 0 0%

DRAM PAGES: 1048576
Allocated PAGES: 34487
