
*** ChampSim Multicore Out-of-Order Simulator ***

Warmup Instructions: 50000000
Simulation Instructions: 200000000
Number of CPUs: 1
LLC sets: 2048
LLC ways: 16
L0D sets: 16
L0D ways: 2
ROB size: 352
LQ size: 128
SQ size: 72
Secure Berti: OFF
Berti: OFF
Berti Fill: OFF
On commit prefetching: OFF
Hit-based filter: ON
Time-guarding: ON
Free-slotting: ON
Leap-frogging: ON
Train prefetcher on L0D bypass: OFF
No translation penalty for prefetchers: OFF
Prefetch to L0D only: OFF
Prefetch to L1D only: OFF
Clean evictions: ON
Commit loads: ON
Commit write: ON
Fill commit loads to L2C, LLC: ON
DRAM IO FREQUENCY: 6400
ROB SIZE: 352
Off-chip DRAM Size: 4096 MB Channels: 1 Width: 64-bit Data Rate: 6400 MT/s
CPU 0 runs /home/sumon/secure_berti/GhostMinion/../../traces/spec/654.roms_s-293B.champsimtrace.xz
.xz
BTB has LRU replacement policy
ITLB has LRU replacement policy
DTLB has LRU replacement policy
STLB has LRU replacement policy
L1I has LRU replacement policy
L0D has LRU replacement policy
CPU 0 L1D IP-based stride prefetcher
L1D has LRU replacement policy
L2C has LRU replacement policy
LLC has LRU replacement policy
Heartbeat CPU 0 instructions: 10000001 cycles: 3398687 heartbeat IPC: 2.94231 cumulative IPC: 2.94231 (Simulation time: 0 hr 0 min 30 sec) 
Heartbeat CPU 0 instructions: 20000003 cycles: 6868948 heartbeat IPC: 2.88163 cumulative IPC: 2.91165 (Simulation time: 0 hr 1 min 0 sec) 
Heartbeat CPU 0 instructions: 30000000 cycles: 10267667 heartbeat IPC: 2.94228 cumulative IPC: 2.92179 (Simulation time: 0 hr 1 min 31 sec) 
Heartbeat CPU 0 instructions: 40000003 cycles: 13738403 heartbeat IPC: 2.88123 cumulative IPC: 2.91155 (Simulation time: 0 hr 2 min 2 sec) 
Heartbeat CPU 0 instructions: 50000003 cycles: 17136683 heartbeat IPC: 2.94267 cumulative IPC: 2.91772 (Simulation time: 0 hr 2 min 32 sec) 

Warmup complete CPU 0 instructions: 50000003 cycles: 17136683 (Simulation time: 0 hr 2 min 32 sec) 

Heartbeat CPU 0 instructions: 60000002 cycles: 26963713 heartbeat IPC: 1.0176 cumulative IPC: 1.0176 (Simulation time: 0 hr 3 min 9 sec) 
Heartbeat CPU 0 instructions: 70000003 cycles: 36473261 heartbeat IPC: 1.05157 cumulative IPC: 1.03431 (Simulation time: 0 hr 3 min 44 sec) 
Heartbeat CPU 0 instructions: 80000002 cycles: 46137990 heartbeat IPC: 1.03469 cumulative IPC: 1.03444 (Simulation time: 0 hr 4 min 20 sec) 
Heartbeat CPU 0 instructions: 90000002 cycles: 55821612 heartbeat IPC: 1.03267 cumulative IPC: 1.03399 (Simulation time: 0 hr 4 min 55 sec) 
Heartbeat CPU 0 instructions: 100000003 cycles: 65448868 heartbeat IPC: 1.03872 cumulative IPC: 1.03494 (Simulation time: 0 hr 5 min 31 sec) 
Heartbeat CPU 0 instructions: 110000000 cycles: 75161967 heartbeat IPC: 1.02954 cumulative IPC: 1.03403 (Simulation time: 0 hr 6 min 6 sec) 
Heartbeat CPU 0 instructions: 120000000 cycles: 84704143 heartbeat IPC: 1.04798 cumulative IPC: 1.036 (Simulation time: 0 hr 6 min 41 sec) 
Heartbeat CPU 0 instructions: 130000000 cycles: 94694562 heartbeat IPC: 1.00096 cumulative IPC: 1.03149 (Simulation time: 0 hr 7 min 18 sec) 
Heartbeat CPU 0 instructions: 140000003 cycles: 104455013 heartbeat IPC: 1.02454 cumulative IPC: 1.03071 (Simulation time: 0 hr 7 min 53 sec) 
Heartbeat CPU 0 instructions: 150000000 cycles: 114197882 heartbeat IPC: 1.02639 cumulative IPC: 1.03028 (Simulation time: 0 hr 8 min 27 sec) 
Heartbeat CPU 0 instructions: 160000000 cycles: 123948784 heartbeat IPC: 1.02555 cumulative IPC: 1.02985 (Simulation time: 0 hr 9 min 2 sec) 
Heartbeat CPU 0 instructions: 170000003 cycles: 133700434 heartbeat IPC: 1.02547 cumulative IPC: 1.02948 (Simulation time: 0 hr 9 min 37 sec) 
Heartbeat CPU 0 instructions: 180000001 cycles: 143457642 heartbeat IPC: 1.02488 cumulative IPC: 1.02912 (Simulation time: 0 hr 10 min 12 sec) 
Heartbeat CPU 0 instructions: 190000003 cycles: 153206515 heartbeat IPC: 1.02576 cumulative IPC: 1.02888 (Simulation time: 0 hr 10 min 48 sec) 
Heartbeat CPU 0 instructions: 200000001 cycles: 162963257 heartbeat IPC: 1.02493 cumulative IPC: 1.02862 (Simulation time: 0 hr 11 min 23 sec) 
Heartbeat CPU 0 instructions: 210000001 cycles: 172710736 heartbeat IPC: 1.02591 cumulative IPC: 1.02845 (Simulation time: 0 hr 11 min 58 sec) 
Heartbeat CPU 0 instructions: 220000000 cycles: 182461951 heartbeat IPC: 1.02551 cumulative IPC: 1.02828 (Simulation time: 0 hr 12 min 32 sec) 
Heartbeat CPU 0 instructions: 230000000 cycles: 192210719 heartbeat IPC: 1.02577 cumulative IPC: 1.02814 (Simulation time: 0 hr 13 min 6 sec) 
Heartbeat CPU 0 instructions: 240000002 cycles: 201961584 heartbeat IPC: 1.02555 cumulative IPC: 1.028 (Simulation time: 0 hr 13 min 40 sec) 
Heartbeat CPU 0 instructions: 250000002 cycles: 211704035 heartbeat IPC: 1.02644 cumulative IPC: 1.02792 (Simulation time: 0 hr 14 min 14 sec) 
Finished CPU 0 instructions: 200000003 cycles: 194567353 cumulative IPC: 1.02792 (Simulation time: 0 hr 14 min 14 sec) 
 Instruction ID: 250000053

ChampSim completed all CPUs

Region of Interest Statistics

CPU 0 cumulative IPC: 1.02792 instructions: 200000003 cycles: 194567353
ITLB SPEC fills:          0  NON-SPEC fills:          0
ITLB Test counter :          0
ITLB Leapfrog:          0
ITLB MSHR merge:          0
ITLB TOTAL     ACCESS:   27352159  HIT:   27352143  MISS:         16  HIT %:    99.9999  MISS %: 5.84963e-05   MPKI: 8e-05
ITLB LOAD TRANSLATION NON_SPEC    ACCESS:   27352159  HIT:   27352143  MISS:         16  HIT %:    99.9999  MISS %: 5.84963e-05   MPKI: 8e-05
ITLB PREFETCH  REQUESTED:          0  ISSUED:          0  USEFUL:          0  USELESS:          0
ITLB USEFUL LOAD PREFETCHES:          0 PREFETCH ISSUED TO LOWER LEVEL:          0  ACCURACY: -nan
ITLB TIMELY PREFETCHES:          0 LATE PREFETCHES: 0 DROPPED PREFETCHES: 0
ITLB COMMIT LATE PREFETCHES: 0 MISSED OPPORTUNITY: 0 LATE IN PQ: 0 UNCOVERED: 0
ITLB COMMIT LATE MSHR PREFETCHES: 0
ITLB MPKI TOTAL: 0 MSHR LATE: 0 PQ LATE: 0 COMMIT LATE: 0 MISSED OPPORTUNITY: 0 UNCOVERED: 0
ITLB PREFETCHES SAME FILL-ORIGIN LEVEL: 0 DIFFERENT FILL-ORIGIN LEVEL: 0
ITLB AVERAGE MISS LATENCY: 301.312 cycles
ITLB AVERAGE MISS LATENCY LOAD: -nan cycles
ITLB AVERAGE MISS LATENCY PREFETCH: -nan cycles
ITLB AVERAGE MSHR OCCUPANCY: 1.09681e-07
ITLB MSHR FULL: 0
ITLB RQ	ACCESS:   34418179	FORWARD:          0	MERGED:    7066018	TO_CACHE:   27352161

DTLB SPEC fills:          0  NON-SPEC fills:          0
DTLB Test counter :          0
DTLB Leapfrog:          0
DTLB MSHR merge:          0
DTLB TOTAL     ACCESS:   60151302  HIT:   60071248  MISS:      80054  HIT %:    99.8669  MISS %:   0.133088   MPKI: 0.40027
DTLB LOAD TRANSLATION NON_SPEC    ACCESS:   60151302  HIT:   60071248  MISS:      80054  HIT %:    99.8669  MISS %:   0.133088   MPKI: 0.40027
DTLB PREFETCH  REQUESTED:          0  ISSUED:          0  USEFUL:          0  USELESS:          0
DTLB USEFUL LOAD PREFETCHES:          0 PREFETCH ISSUED TO LOWER LEVEL:          0  ACCURACY: -nan
DTLB TIMELY PREFETCHES:          0 LATE PREFETCHES: 0 DROPPED PREFETCHES: 0
DTLB COMMIT LATE PREFETCHES: 0 MISSED OPPORTUNITY: 0 LATE IN PQ: 0 UNCOVERED: 0
DTLB COMMIT LATE MSHR PREFETCHES: 0
DTLB MPKI TOTAL: 0 MSHR LATE: 0 PQ LATE: 0 COMMIT LATE: 0 MISSED OPPORTUNITY: 0 UNCOVERED: 0
DTLB PREFETCHES SAME FILL-ORIGIN LEVEL: 0 DIFFERENT FILL-ORIGIN LEVEL: 0
DTLB AVERAGE MISS LATENCY: 318.342 cycles
DTLB AVERAGE MISS LATENCY LOAD: -nan cycles
DTLB AVERAGE MISS LATENCY PREFETCH: -nan cycles
DTLB AVERAGE MSHR OCCUPANCY: 0.016795
DTLB MSHR FULL: 3.32257e-08
DTLB RQ	ACCESS:   68131984	FORWARD:          0	MERGED:    7937530	TO_CACHE:   60194454

STLB SPEC fills:          0  NON-SPEC fills:          0
STLB Test counter :          0
STLB Leapfrog:          0
STLB MSHR merge:          0
STLB TOTAL     ACCESS:    3146853  HIT:    3099012  MISS:      47841  HIT %:    98.4797  MISS %:    1.52028   MPKI: 0.239205
STLB LOAD TRANSLATION NON_SPEC    ACCESS:      80070  HIT:      32229  MISS:      47841  HIT %:     40.251  MISS %:     59.749   MPKI: 0.239205
STLB TRANSLATION FROM L1D PREFETCHER NON_SPEC    ACCESS:    3066783  HIT:    3066783  MISS:          0  HIT %:        100  MISS %:          0   MPKI: 0
STLB PREFETCH  REQUESTED:          0  ISSUED:          0  USEFUL:          0  USELESS:          0
STLB USEFUL LOAD PREFETCHES:          0 PREFETCH ISSUED TO LOWER LEVEL:          0  ACCURACY: -nan
STLB TIMELY PREFETCHES:          0 LATE PREFETCHES: 0 DROPPED PREFETCHES: 0
STLB COMMIT LATE PREFETCHES: 0 MISSED OPPORTUNITY: 0 LATE IN PQ: 0 UNCOVERED: 0
STLB COMMIT LATE MSHR PREFETCHES: 0
STLB MPKI TOTAL: 0 MSHR LATE: 0 PQ LATE: 0 COMMIT LATE: 0 MISSED OPPORTUNITY: 0 UNCOVERED: 0
STLB PREFETCHES SAME FILL-ORIGIN LEVEL: 0 DIFFERENT FILL-ORIGIN LEVEL: 0
STLB AVERAGE MISS LATENCY: 517.572 cycles
STLB AVERAGE MISS LATENCY LOAD: -nan cycles
STLB AVERAGE MISS LATENCY PREFETCH: -nan cycles
STLB AVERAGE MSHR OCCUPANCY: 0.042477
STLB MSHR FULL: 0
STLB RQ	ACCESS:    9127191	FORWARD:          0	MERGED:    5980338	TO_CACHE:    3146853

STLB Hit, L1D data hit: 0
STLB Hit, L2C data hit: 0
STLB Hit, LLC data hit: 0
STLB Hit, LLC data miss: 0
STLB STLB hints to L2: 0
L0D SPEC fills:   33202261  NON-SPEC fills:          0
L0D TimeGuard Request with older TS:    1525091 Restricted eviction:    1349485 read:    2202210
L0D Test counter :          0
L0D Leapfrog:          0
L0D MSHR merge:    4078263
L0D TOTAL     ACCESS:   52645260  HIT:   10232377  MISS:   42412883  HIT %:    19.4365  MISS %:    80.5635   MPKI: 212.064
L0D LOAD      TOTAL       ACCESS:   52645260  HIT:   10232377  MISS:   42412883  HIT %:    19.4365  MISS %:    80.5635   MPKI: 212.064
L0D LOAD      NON_SPEC    ACCESS:    9252688  HIT:    1391550  MISS:    7861138  HIT %:    15.0394  MISS %:    84.9606   MPKI: 39.3057
L0D LOAD      SPEC        ACCESS:   43392572  HIT:    8840827  MISS:   34551745  HIT %:    20.3741  MISS %:    79.6259   MPKI: 172.759
L0D PREFETCH  REQUESTED:          0  ISSUED:          0  USEFUL:          0  USELESS:          0
L0D USEFUL LOAD PREFETCHES:          0 PREFETCH ISSUED TO LOWER LEVEL:          0  ACCURACY: -nan
L0D TIMELY PREFETCHES:          0 LATE PREFETCHES: 0 DROPPED PREFETCHES: 0
L0D COMMIT LATE PREFETCHES: 0 MISSED OPPORTUNITY: 0 LATE IN PQ: 0 UNCOVERED: 0
L0D COMMIT LATE MSHR PREFETCHES: 0
L0D MPKI TOTAL: 232.456 MSHR LATE: 0 PQ LATE: 0 COMMIT LATE: 0 MISSED OPPORTUNITY: 0 UNCOVERED: 0
L0D PREFETCHES SAME FILL-ORIGIN LEVEL: 0 DIFFERENT FILL-ORIGIN LEVEL: 0
L0D AVERAGE MISS LATENCY: 5.4811 cycles
L0D AVERAGE MISS LATENCY LOAD: 5.4811 cycles
L0D AVERAGE MISS LATENCY PREFETCH: -nan cycles
L0D AVERAGE MSHR OCCUPANCY: 1.25675
L0D MSHR FULL: 4.18161e-05
L0D RQ	ACCESS:   73240336	FORWARD:          0	MERGED:   16516813	TO_CACHE:   56723523
L0D WQ	ACCESS:   11408461	FORWARD:          0	MERGED:          0	TO_CACHE:   11408461

L1D SPEC fills:          0  NON-SPEC fills:       6541
L1D Test counter :          0
L1D Leapfrog:          0
L1D MSHR merge:       9958
L1D TOTAL     ACCESS:   62145695  HIT:   59379195  MISS:    2766500  HIT %:    95.5484  MISS %:    4.45164   MPKI: 13.8325
L1D LOAD      TOTAL       ACCESS:   42409532  HIT:   42255948  MISS:     153584  HIT %:    99.6379  MISS %:   0.362145   MPKI: 0.76792
L1D LOAD      NON_SPEC    ACCESS:    7861033  HIT:    7854492  MISS:       6541  HIT %:    99.9168  MISS %:  0.0832079   MPKI: 0.032705
L1D LOAD      SPEC        ACCESS:   34548499  HIT:   34401456  MISS:     147043  HIT %:    99.5744  MISS %:   0.425613   MPKI: 0.735215
L1D RFO       NON_SPEC    ACCESS:   10717356  HIT:   10342674  MISS:     374682  HIT %:     96.504  MISS %:    3.49603   MPKI: 1.87341
L1D PREFETCH  NON_SPEC    ACCESS:    8717070  HIT:    6621932  MISS:    2095138  HIT %:    75.9651  MISS %:    24.0349   MPKI: 10.4757
L1D COMMIT LOAD NON_SPEC    ACCESS:     134910  HIT:     128800  MISS:       6110  HIT %:    95.4711  MISS %:    4.52895   MPKI: 0.03055
L1D COMMIT WRITE NON_SPEC    ACCESS:     166827  HIT:      29841  MISS:     136986  HIT %:    17.8874  MISS %:    82.1126   MPKI: 0.68493
L1D PREFETCH  REQUESTED:    9146624  ISSUED:    9144921  USEFUL:    2012452  USELESS:      82662
L1D USEFUL LOAD PREFETCHES:    2012452 PREFETCH ISSUED TO LOWER LEVEL:    2144675  ACCURACY: 93.8348
L1D TIMELY PREFETCHES:    2012452 LATE PREFETCHES: 6608 DROPPED PREFETCHES: 0
L1D COMMIT LATE PREFETCHES: 0 MISSED OPPORTUNITY: 0 LATE IN PQ: 0 UNCOVERED: 0
L1D COMMIT LATE MSHR PREFETCHES: 0
L1D MPKI TOTAL: 0.78467 MSHR LATE: 0.03304 PQ LATE: 0 COMMIT LATE: 0 MISSED OPPORTUNITY: 0 UNCOVERED: 0
L1D PREFETCHES SAME FILL-ORIGIN LEVEL: 2101748 DIFFERENT FILL-ORIGIN LEVEL: 42927
L1D AVERAGE MISS LATENCY: 140.273 cycles
L1D AVERAGE MISS LATENCY LOAD: 104.893 cycles
L1D AVERAGE MISS LATENCY PREFETCH: 142.648 cycles
L1D AVERAGE MSHR OCCUPANCY: 1.9818
L1D MSHR FULL: 0.000402535
L1D RQ	ACCESS:   42587064	FORWARD:          0	MERGED:      35128	TO_CACHE:   42551900
L1D WQ	ACCESS:   11572863	FORWARD:         36	MERGED:        548	TO_CACHE:   11572315
L1D PQ	ACCESS:    9144921	FORWARD:          0	MERGED:      97800	TO_CACHE:    9047121

L1D UNIQUE REGIONS ACCESSED: 0
L1D REGIONS CONFLICTS: 0
L1D Cross Page Prefetch Requests: 0
L1D Same Page Prefetch Requests: 10260396
L1D ROI Sum of L1D PQ occupancy: 123645499
L1D PREFETCHES PUSHED FROM L2C: 0
L1I SPEC fills:          0  NON-SPEC fills:          0
L1I Test counter :          0
L1I Leapfrog:          0
L1I MSHR merge:         55
L1I TOTAL     ACCESS:   34418125  HIT:   34417952  MISS:        173  HIT %:    99.9995  MISS %: 0.000502642   MPKI: 0.000865
L1I LOAD      TOTAL       ACCESS:   34418125  HIT:   34417952  MISS:        173  HIT %:    99.9995  MISS %: 0.000502642   MPKI: 0.000865
L1I LOAD      NON_SPEC    ACCESS:   34418125  HIT:   34417952  MISS:        173  HIT %:    99.9995  MISS %: 0.000502642   MPKI: 0.000865
L1I PREFETCH  REQUESTED:          0  ISSUED:          0  USEFUL:          0  USELESS:          0
L1I USEFUL LOAD PREFETCHES:          0 PREFETCH ISSUED TO LOWER LEVEL:          0  ACCURACY: -nan
L1I TIMELY PREFETCHES:          0 LATE PREFETCHES: 0 DROPPED PREFETCHES: 0
L1I COMMIT LATE PREFETCHES: 0 MISSED OPPORTUNITY: 0 LATE IN PQ: 0 UNCOVERED: 0
L1I COMMIT LATE MSHR PREFETCHES: 0
L1I MPKI TOTAL: 0.00114 MSHR LATE: 0 PQ LATE: 0 COMMIT LATE: 0 MISSED OPPORTUNITY: 0 UNCOVERED: 0
L1I PREFETCHES SAME FILL-ORIGIN LEVEL: 0 DIFFERENT FILL-ORIGIN LEVEL: 0
L1I AVERAGE MISS LATENCY: 209.792 cycles
L1I AVERAGE MISS LATENCY LOAD: 209.792 cycles
L1I AVERAGE MISS LATENCY PREFETCH: -nan cycles
L1I AVERAGE MSHR OCCUPANCY: 4.50343e-06
L1I MSHR FULL: 0
L1I RQ	ACCESS:   50638198	FORWARD:          0	MERGED:   16220019	TO_CACHE:   34418179

BTB SPEC fills:          0  NON-SPEC fills:          0
BTB Test counter :          0
BTB Leapfrog:          0
BTB MSHR merge:          0
BTB TOTAL     ACCESS:    7097426  HIT:    7097294  MISS:        132  HIT %:    99.9981  MISS %: 0.00185983   MPKI: 0.00066
BTB BRANCH_DIRECT_JUMP	ACCESS:        147  HIT:        134  MISS:         13
BTB BRANCH_INDIRECT	ACCESS:          0  HIT:          0  MISS:          0
BTB BRANCH_CONDITIONAL	ACCESS:    7097021  HIT:    7096962  MISS:         59
BTB BRANCH_DIRECT_CALL	ACCESS:        129  HIT:         99  MISS:         30
BTB BRANCH_INDIRECT_CALL	ACCESS:          0  HIT:          0  MISS:          0
BTB BRANCH_RETURN	ACCESS:        129  HIT:         99  MISS:         30
BTB BRANCH_OTHER ACCESS:          0  HIT:          0  MISS:          0

L2C SPEC fills:          0  NON-SPEC fills:       2250
L2C Test counter :          0
L2C Leapfrog:          0
L2C MSHR merge:        262
L2C TOTAL     ACCESS:    3448919  HIT:     854249  MISS:    2594670  HIT %:    24.7686  MISS %:    75.2314   MPKI: 12.9733
L2C LOAD      TOTAL       ACCESS:     147019  HIT:      30889  MISS:     116130  HIT %:    21.0102  MISS %:    78.9898   MPKI: 0.58065
L2C LOAD      NON_SPEC    ACCESS:       6599  HIT:       4176  MISS:       2423  HIT %:    63.2823  MISS %:    36.7177   MPKI: 0.012115
L2C LOAD      SPEC        ACCESS:     140420  HIT:      26713  MISS:     113707  HIT %:    19.0236  MISS %:    80.9764   MPKI: 0.568535
L2C RFO       NON_SPEC    ACCESS:     374671  HIT:        358  MISS:     374313  HIT %:  0.0955505  MISS %:    99.9044   MPKI: 1.87156
L2C PREFETCH  NON_SPEC    ACCESS:    2138645  HIT:     196217  MISS:    1942428  HIT %:    9.17483  MISS %:    90.8252   MPKI: 9.71214
L2C WRITEBACK NON_SPEC    ACCESS:     423910  HIT:     413410  MISS:      10500  HIT %:    97.5231  MISS %:    2.47694   MPKI: 0.0525
L2C CLEAN_EVICTION NON_SPEC    ACCESS:     119629  HIT:      13525  MISS:     106104  HIT %:    11.3058  MISS %:    88.6942   MPKI: 0.53052
L2C COMMIT LOAD NON_SPEC    ACCESS:       6110  HIT:        719  MISS:       5391  HIT %:    11.7676  MISS %:    88.2324   MPKI: 0.026955
L2C LOAD TRANSLATION NON_SPEC    ACCESS:     238935  HIT:     199131  MISS:      39804  HIT %:    83.3411  MISS %:    16.6589   MPKI: 0.19902
L2C PREFETCH  REQUESTED:          0  ISSUED:          0  USEFUL:       8761  USELESS:    1928679
L2C USEFUL LOAD PREFETCHES:       8761 PREFETCH ISSUED TO LOWER LEVEL:    1942691  ACCURACY: 0.450972
L2C TIMELY PREFETCHES:       8761 LATE PREFETCHES: 262 DROPPED PREFETCHES: 0
L2C COMMIT LATE PREFETCHES: 0 MISSED OPPORTUNITY: 0 LATE IN PQ: 0 UNCOVERED: 0
L2C COMMIT LATE MSHR PREFETCHES: 0
L2C MPKI TOTAL: 0.58065 MSHR LATE: 0.00131 PQ LATE: 0 COMMIT LATE: 0 MISSED OPPORTUNITY: 0 UNCOVERED: 0
L2C PREFETCHES SAME FILL-ORIGIN LEVEL: 29411 DIFFERENT FILL-ORIGIN LEVEL: 0
L2C AVERAGE MISS LATENCY: 138.646 cycles
L2C AVERAGE MISS LATENCY LOAD: 120.14 cycles
L2C AVERAGE MISS LATENCY PREFETCH: 141.172 cycles
L2C AVERAGE MSHR OCCUPANCY: 1.99255
L2C MSHR FULL: 0
L2C RQ	ACCESS:     766874	FORWARD:          0	MERGED:          0	TO_CACHE:     766734
L2C WQ	ACCESS:     543539	FORWARD:        164	MERGED:          0	TO_CACHE:     543539
L2C PQ	ACCESS:    2144675	FORWARD:          0	MERGED:          0	TO_CACHE:    2144651

L2C Instructions Evicting Data 171
L2C Translations Evicting Data 39039
L2C Data Evicting Data 2287790
L2C Instructions Evicting Instructions 0
L2C Translations Evicting Instructions 2
L2C Data Evicting Instructions 167
L2C Instructions Evicting Translations 2
L2C Translations Evicting Translations 763
L2C Data Evicting Translations 36425
L2C Dense regions hint from L2: 0
PSCL5 SPEC fills:          0  NON-SPEC fills:          0
PSCL5 Test counter :          0
PSCL5 Leapfrog:          0
PSCL5 MSHR merge:          0
PSCL5 TOTAL     ACCESS:          0  HIT:          0  MISS:          0  HIT %:       -nan  MISS %:       -nan   MPKI: 0
PSCL5 PREFETCH  REQUESTED:          0  ISSUED:          0  USEFUL:          0  USELESS:          0
PSCL5 USEFUL LOAD PREFETCHES:          0 PREFETCH ISSUED TO LOWER LEVEL:          0  ACCURACY: -nan
PSCL5 TIMELY PREFETCHES:          0 LATE PREFETCHES: 0 DROPPED PREFETCHES: 0
PSCL5 COMMIT LATE PREFETCHES: 0 MISSED OPPORTUNITY: 0 LATE IN PQ: 0 UNCOVERED: 0
PSCL5 COMMIT LATE MSHR PREFETCHES: 0
PSCL5 MPKI TOTAL: 0 MSHR LATE: 0 PQ LATE: 0 COMMIT LATE: 0 MISSED OPPORTUNITY: 0 UNCOVERED: 0
PSCL5 PREFETCHES SAME FILL-ORIGIN LEVEL: 0 DIFFERENT FILL-ORIGIN LEVEL: 0

PSCL4 SPEC fills:          0  NON-SPEC fills:          0
PSCL4 Test counter :          0
PSCL4 Leapfrog:          0
PSCL4 MSHR merge:          0
PSCL4 TOTAL     ACCESS:          0  HIT:          0  MISS:          0  HIT %:       -nan  MISS %:       -nan   MPKI: 0
PSCL4 PREFETCH  REQUESTED:          0  ISSUED:          0  USEFUL:          0  USELESS:          0
PSCL4 USEFUL LOAD PREFETCHES:          0 PREFETCH ISSUED TO LOWER LEVEL:          0  ACCURACY: -nan
PSCL4 TIMELY PREFETCHES:          0 LATE PREFETCHES: 0 DROPPED PREFETCHES: 0
PSCL4 COMMIT LATE PREFETCHES: 0 MISSED OPPORTUNITY: 0 LATE IN PQ: 0 UNCOVERED: 0
PSCL4 COMMIT LATE MSHR PREFETCHES: 0
PSCL4 MPKI TOTAL: 0 MSHR LATE: 0 PQ LATE: 0 COMMIT LATE: 0 MISSED OPPORTUNITY: 0 UNCOVERED: 0
PSCL4 PREFETCHES SAME FILL-ORIGIN LEVEL: 0 DIFFERENT FILL-ORIGIN LEVEL: 0

PSCL3 SPEC fills:          0  NON-SPEC fills:          0
PSCL3 Test counter :          0
PSCL3 Leapfrog:          0
PSCL3 MSHR merge:          0
PSCL3 TOTAL     ACCESS:          0  HIT:          0  MISS:          0  HIT %:       -nan  MISS %:       -nan   MPKI: 0
PSCL3 PREFETCH  REQUESTED:          0  ISSUED:          0  USEFUL:          0  USELESS:          0
PSCL3 USEFUL LOAD PREFETCHES:          0 PREFETCH ISSUED TO LOWER LEVEL:          0  ACCURACY: -nan
PSCL3 TIMELY PREFETCHES:          0 LATE PREFETCHES: 0 DROPPED PREFETCHES: 0
PSCL3 COMMIT LATE PREFETCHES: 0 MISSED OPPORTUNITY: 0 LATE IN PQ: 0 UNCOVERED: 0
PSCL3 COMMIT LATE MSHR PREFETCHES: 0
PSCL3 MPKI TOTAL: 0 MSHR LATE: 0 PQ LATE: 0 COMMIT LATE: 0 MISSED OPPORTUNITY: 0 UNCOVERED: 0
PSCL3 PREFETCHES SAME FILL-ORIGIN LEVEL: 0 DIFFERENT FILL-ORIGIN LEVEL: 0

PSCL2 SPEC fills:          0  NON-SPEC fills:          0
PSCL2 Test counter :          0
PSCL2 Leapfrog:          0
PSCL2 MSHR merge:          0
PSCL2 TOTAL     ACCESS:          0  HIT:          0  MISS:          0  HIT %:       -nan  MISS %:       -nan   MPKI: 0
PSCL2 PREFETCH  REQUESTED:          0  ISSUED:          0  USEFUL:          0  USELESS:          0
PSCL2 USEFUL LOAD PREFETCHES:          0 PREFETCH ISSUED TO LOWER LEVEL:          0  ACCURACY: -nan
PSCL2 TIMELY PREFETCHES:          0 LATE PREFETCHES: 0 DROPPED PREFETCHES: 0
PSCL2 COMMIT LATE PREFETCHES: 0 MISSED OPPORTUNITY: 0 LATE IN PQ: 0 UNCOVERED: 0
PSCL2 COMMIT LATE MSHR PREFETCHES: 0
PSCL2 MPKI TOTAL: 0 MSHR LATE: 0 PQ LATE: 0 COMMIT LATE: 0 MISSED OPPORTUNITY: 0 UNCOVERED: 0
PSCL2 PREFETCHES SAME FILL-ORIGIN LEVEL: 0 DIFFERENT FILL-ORIGIN LEVEL: 0

LLC SPEC fills:          0  NON-SPEC fills:       1422
LLC Test counter :          0
LLC Leapfrog:          0
LLC MSHR merge:          0
LLC TOTAL     ACCESS:    3006135  HIT:    1001658  MISS:    2004477  HIT %:    33.3205  MISS %:    66.6795   MPKI: 10.0224
LLC LOAD      TOTAL       ACCESS:     115865  HIT:      23962  MISS:      91903  HIT %:     20.681  MISS %:     79.319   MPKI: 0.459515
LLC LOAD      NON_SPEC    ACCESS:       2417  HIT:        822  MISS:       1595  HIT %:    34.0091  MISS %:    65.9909   MPKI: 0.007975
LLC LOAD      SPEC        ACCESS:     113448  HIT:      23140  MISS:      90308  HIT %:     20.397  MISS %:     79.603   MPKI: 0.45154
LLC RFO       NON_SPEC    ACCESS:     374313  HIT:      62144  MISS:     312169  HIT %:    16.6021  MISS %:    83.3979   MPKI: 1.56084
LLC PREFETCH  NON_SPEC    ACCESS:    1942690  HIT:     449353  MISS:    1493337  HIT %:    23.1305  MISS %:    76.8695   MPKI: 7.46668
LLC WRITEBACK NON_SPEC    ACCESS:     411407  HIT:     410664  MISS:        743  HIT %:    99.8194  MISS %:     0.1806   MPKI: 0.003715
LLC CLEAN_EVICTION NON_SPEC    ACCESS:     116665  HIT:      29883  MISS:      86782  HIT %:    25.6144  MISS %:    74.3856   MPKI: 0.43391
LLC COMMIT LOAD NON_SPEC    ACCESS:       5391  HIT:       2355  MISS:       3036  HIT %:    43.6839  MISS %:    56.3161   MPKI: 0.01518
LLC LOAD TRANSLATION NON_SPEC    ACCESS:      39804  HIT:      23297  MISS:      16507  HIT %:    58.5293  MISS %:    41.4707   MPKI: 0.082535
LLC PREFETCH  REQUESTED:          0  ISSUED:          0  USEFUL:      18230  USELESS:    1454400
LLC USEFUL LOAD PREFETCHES:      18230 PREFETCH ISSUED TO LOWER LEVEL:    1493338  ACCURACY: 1.22076
LLC TIMELY PREFETCHES:      18230 LATE PREFETCHES: 0 DROPPED PREFETCHES: 0
LLC COMMIT LATE PREFETCHES: 0 MISSED OPPORTUNITY: 0 LATE IN PQ: 0 UNCOVERED: 0
LLC COMMIT LATE MSHR PREFETCHES: 0
LLC MPKI TOTAL: 0.459515 MSHR LATE: 0 PQ LATE: 0 COMMIT LATE: 0 MISSED OPPORTUNITY: 0 UNCOVERED: 0
LLC PREFETCHES SAME FILL-ORIGIN LEVEL: 0 DIFFERENT FILL-ORIGIN LEVEL: 0
LLC AVERAGE MISS LATENCY: 141.442 cycles
LLC AVERAGE MISS LATENCY LOAD: 113.945 cycles
LLC AVERAGE MISS LATENCY PREFETCH: 143.425 cycles
LLC AVERAGE MSHR OCCUPANCY: 1.54616
LLC MSHR FULL: 0
LLC RQ	ACCESS:     535375	FORWARD:          0	MERGED:          0	TO_CACHE:     535372
LLC WQ	ACCESS:     528072	FORWARD:          3	MERGED:          0	TO_CACHE:     528072
LLC PQ	ACCESS:    1942691	FORWARD:          0	MERGED:          0	TO_CACHE:    1942691

LLC Dense regions hint to LLC: 0

RAW hits: 454948
Loads Generated: 73695285
Loads sent to L1D: 73240336
Stores Generated: 11408451
Stores sent to L1D: 11408461
Major fault: 0 Minor fault: 53394
Allocated PAGES: 53394
Total Load insts: 89163783
Total Non-spec loads: 10769487
Percentage of speculative loads: 87.9217

LeapFrogging counter: 500
Commit hits: 32020772 miss: 31625145
Commit hit %: 50.3108 miss %: 49.6892
Commits not translated: 0
Loads retired: 153584
Stores retired: 11408461
Cache fills: 153584
L1D response latency: 104.893 cycles
Load retirement latency: 412.086 cycles
OOO test counter: 0
Discarded buffer inserts: 32020772 hits: 2866 hit %: 0.00895044
Filter prediction accuracy: 99.9936
Speculative prefetch buffer size: 0
CPU 0 L1D PC-based stride prefetcher final stats
Degree: 3

DRAM Statistics
 CHANNEL 0
 RQ ROW_BUFFER_HIT:    1157501  ROW_BUFFER_MISS:     759193
 DBUS_CONGESTED:       2065
 WQ ROW_BUFFER_HIT:     123497  ROW_BUFFER_MISS:     339038  FULL:          0

 AVG_CONGESTED_CYCLE: 4
 All warmup complete: 2
Channel 0 Bank busy for read cycles: 0
Channel 0 Bank busy for write cycles: 0
Channel 0
Rank 0
0banks busy for read cycles: 47942938
0banks busy for write cycles: 130541
1banks busy for read cycles: 63834725
1banks busy for write cycles: 18787477
2banks busy for read cycles: 37345488
2banks busy for write cycles: 7754847
3banks busy for read cycles: 4231995
3banks busy for write cycles: 3063748
4banks busy for read cycles: 2995732
4banks busy for write cycles: 1474871
5banks busy for read cycles: 790883
5banks busy for write cycles: 754386
6banks busy for read cycles: 482580
6banks busy for write cycles: 470718
7banks busy for read cycles: 209328
7banks busy for write cycles: 552186
8banks busy for read cycles: 139656
8banks busy for write cycles: 3605255

CPU 0 Branch Prediction Accuracy: 99.9104% MPKI: 0.03179 Average ROB Occupancy at Mispredict: 47.2183
Branch types
NOT_BRANCH: 192900793 96.4504%
BRANCH_DIRECT_JUMP: 147 7.35e-05%
BRANCH_INDIRECT: 0 0%
BRANCH_CONDITIONAL: 7098474 3.54924%
BRANCH_DIRECT_CALL: 129 6.45e-05%
BRANCH_INDIRECT_CALL: 0 0%
BRANCH_RETURN: 129 6.45e-05%
BRANCH_OTHER: 0 0%

DRAM PAGES: 1048576
Allocated PAGES: 53394
