Initialize SIGNATURE TABLE
ST_SET: 1
ST_WAY: 256
ST_TAG_BIT: 16
ST_TAG_MASK: ffff

Initialize PATTERN TABLE
PT_SET: 512
PT_WAY: 4
SIG_DELTA_BIT: 7
C_SIG_BIT: 4
C_DELTA_BIT: 4

Initialize PREFETCH FILTER
FILTER_SET: 1024

Initialize PERCEPTRON
PERC_ENTRIES: 4096
PERC_FEATURES: 9

*** ChampSim Multicore Out-of-Order Simulator ***

Warmup Instructions: 50000000
Simulation Instructions: 200000000
Number of CPUs: 1
LLC sets: 2048
LLC ways: 16
L0D sets: 16
L0D ways: 2
ROB size: 352
LQ size: 128
SQ size: 72
Secure Berti: OFF
Berti: OFF
Berti Fill: OFF
On commit prefetching: OFF
Hit-based filter: ON
Time-guarding: ON
Free-slotting: ON
Leap-frogging: ON
Train prefetcher on L0D bypass: OFF
No translation penalty for prefetchers: OFF
Prefetch to L0D only: OFF
Prefetch to L1D only: OFF
Clean evictions: ON
Commit loads: ON
Commit write: ON
Fill commit loads to L2C, LLC: ON
DRAM IO FREQUENCY: 6400
ROB SIZE: 352
Off-chip DRAM Size: 4096 MB Channels: 1 Width: 64-bit Data Rate: 6400 MT/s
CPU 0 runs /home/sumon/secure_berti/GhostMinion/../../traces/spec/602.gcc_s-2226B.champsimtrace.xz
.xz
BTB has LRU replacement policy
ITLB has LRU replacement policy
DTLB has LRU replacement policy
STLB has LRU replacement policy
L1I has LRU replacement policy
L0D has LRU replacement policy
L1D has LRU replacement policy
PERC_ENTRIES: 4096
L2C has LRU replacement policy
LLC has LRU replacement policy
Heartbeat CPU 0 instructions: 10000002 cycles: 6787486 heartbeat IPC: 1.4733 cumulative IPC: 1.4733 (Simulation time: 0 hr 0 min 37 sec) 
Heartbeat CPU 0 instructions: 20000000 cycles: 13581495 heartbeat IPC: 1.47188 cumulative IPC: 1.47259 (Simulation time: 0 hr 1 min 16 sec) 
Heartbeat CPU 0 instructions: 30000001 cycles: 20389315 heartbeat IPC: 1.4689 cumulative IPC: 1.47136 (Simulation time: 0 hr 1 min 54 sec) 
Heartbeat CPU 0 instructions: 40000002 cycles: 27201267 heartbeat IPC: 1.46801 cumulative IPC: 1.47052 (Simulation time: 0 hr 2 min 33 sec) 
Heartbeat CPU 0 instructions: 50000000 cycles: 33978309 heartbeat IPC: 1.47557 cumulative IPC: 1.47153 (Simulation time: 0 hr 3 min 12 sec) 

Warmup complete CPU 0 instructions: 50000004 cycles: 33978310 (Simulation time: 0 hr 3 min 12 sec) 

Heartbeat CPU 0 instructions: 60000002 cycles: 63426999 heartbeat IPC: 0.339574 cumulative IPC: 0.339574 (Simulation time: 0 hr 4 min 9 sec) 
Heartbeat CPU 0 instructions: 70000000 cycles: 92298655 heartbeat IPC: 0.34636 cumulative IPC: 0.342933 (Simulation time: 0 hr 5 min 7 sec) 
Heartbeat CPU 0 instructions: 80000000 cycles: 121435836 heartbeat IPC: 0.343204 cumulative IPC: 0.343024 (Simulation time: 0 hr 6 min 5 sec) 
Heartbeat CPU 0 instructions: 90000001 cycles: 150770259 heartbeat IPC: 0.340896 cumulative IPC: 0.342489 (Simulation time: 0 hr 7 min 3 sec) 
Heartbeat CPU 0 instructions: 100000001 cycles: 179993070 heartbeat IPC: 0.342198 cumulative IPC: 0.342431 (Simulation time: 0 hr 8 min 1 sec) 
Heartbeat CPU 0 instructions: 110000000 cycles: 208854824 heartbeat IPC: 0.346479 cumulative IPC: 0.343099 (Simulation time: 0 hr 9 min 0 sec) 
Heartbeat CPU 0 instructions: 120000000 cycles: 238147268 heartbeat IPC: 0.341385 cumulative IPC: 0.342853 (Simulation time: 0 hr 9 min 59 sec) 
Heartbeat CPU 0 instructions: 130000001 cycles: 267540658 heartbeat IPC: 0.340213 cumulative IPC: 0.342521 (Simulation time: 0 hr 10 min 58 sec) 
Heartbeat CPU 0 instructions: 140000000 cycles: 296559954 heartbeat IPC: 0.344598 cumulative IPC: 0.342751 (Simulation time: 0 hr 11 min 59 sec) 
Heartbeat CPU 0 instructions: 150000001 cycles: 325605578 heartbeat IPC: 0.344286 cumulative IPC: 0.342903 (Simulation time: 0 hr 12 min 56 sec) 
Heartbeat CPU 0 instructions: 160000002 cycles: 354920093 heartbeat IPC: 0.341128 cumulative IPC: 0.342741 (Simulation time: 0 hr 13 min 52 sec) 
Heartbeat CPU 0 instructions: 170000001 cycles: 384309403 heartbeat IPC: 0.34026 cumulative IPC: 0.342533 (Simulation time: 0 hr 14 min 45 sec) 
Heartbeat CPU 0 instructions: 180000000 cycles: 413176627 heartbeat IPC: 0.346414 cumulative IPC: 0.342829 (Simulation time: 0 hr 15 min 37 sec) 
Heartbeat CPU 0 instructions: 190000002 cycles: 442280014 heartbeat IPC: 0.343603 cumulative IPC: 0.342884 (Simulation time: 0 hr 16 min 25 sec) 
Heartbeat CPU 0 instructions: 200000000 cycles: 471599712 heartbeat IPC: 0.341068 cumulative IPC: 0.342762 (Simulation time: 0 hr 17 min 12 sec) 
Heartbeat CPU 0 instructions: 210000003 cycles: 500776778 heartbeat IPC: 0.342735 cumulative IPC: 0.34276 (Simulation time: 0 hr 17 min 58 sec) 
Heartbeat CPU 0 instructions: 220000000 cycles: 529669702 heartbeat IPC: 0.346105 cumulative IPC: 0.342955 (Simulation time: 0 hr 18 min 45 sec) 
Heartbeat CPU 0 instructions: 230000000 cycles: 559036378 heartbeat IPC: 0.340522 cumulative IPC: 0.342819 (Simulation time: 0 hr 19 min 32 sec) 
Heartbeat CPU 0 instructions: 240000001 cycles: 588421626 heartbeat IPC: 0.340307 cumulative IPC: 0.342686 (Simulation time: 0 hr 20 min 19 sec) 
Heartbeat CPU 0 instructions: 250000000 cycles: 617443046 heartbeat IPC: 0.344573 cumulative IPC: 0.34278 (Simulation time: 0 hr 21 min 5 sec) 
Finished CPU 0 instructions: 200000000 cycles: 583464737 cumulative IPC: 0.34278 (Simulation time: 0 hr 21 min 5 sec) 
 Instruction ID: 250000374

ChampSim completed all CPUs

Region of Interest Statistics

CPU 0 cumulative IPC: 0.34278 instructions: 200000000 cycles: 583464737
ITLB SPEC fills:          0  NON-SPEC fills:          0
ITLB Test counter :          0
ITLB Leapfrog:          0
ITLB MSHR merge:          0
ITLB TOTAL     ACCESS:   39368439  HIT:   39368439  MISS:          0  HIT %:        100  MISS %:          0   MPKI: 0
ITLB LOAD TRANSLATION NON_SPEC    ACCESS:   39368439  HIT:   39368439  MISS:          0  HIT %:        100  MISS %:          0   MPKI: 0
ITLB PREFETCH  REQUESTED:          0  ISSUED:          0  USEFUL:          0  USELESS:          0
ITLB USEFUL LOAD PREFETCHES:          0 PREFETCH ISSUED TO LOWER LEVEL:          0  ACCURACY: -nan
ITLB TIMELY PREFETCHES:          0 LATE PREFETCHES: 0 DROPPED PREFETCHES: 0
ITLB COMMIT LATE PREFETCHES: 0 MISSED OPPORTUNITY: 0 LATE IN PQ: 0 UNCOVERED: 0
ITLB COMMIT LATE MSHR PREFETCHES: 0
ITLB MPKI TOTAL: 0 MSHR LATE: 0 PQ LATE: 0 COMMIT LATE: 0 MISSED OPPORTUNITY: 0 UNCOVERED: 0
ITLB PREFETCHES SAME FILL-ORIGIN LEVEL: 0 DIFFERENT FILL-ORIGIN LEVEL: 0
ITLB AVERAGE MISS LATENCY: -nan cycles
ITLB AVERAGE MISS LATENCY LOAD: -nan cycles
ITLB AVERAGE MISS LATENCY PREFETCH: -nan cycles
ITLB AVERAGE MSHR OCCUPANCY: 0
ITLB MSHR FULL: 0
ITLB RQ	ACCESS:   40066476	FORWARD:          0	MERGED:     698036	TO_CACHE:   39368440

DTLB SPEC fills:          0  NON-SPEC fills:          0
DTLB Test counter :          0
DTLB Leapfrog:          0
DTLB MSHR merge:          0
DTLB TOTAL     ACCESS:   31407113  HIT:   31133606  MISS:     273507  HIT %:    99.1292  MISS %:   0.870844   MPKI: 1.36753
DTLB LOAD TRANSLATION NON_SPEC    ACCESS:   31407113  HIT:   31133606  MISS:     273507  HIT %:    99.1292  MISS %:   0.870844   MPKI: 1.36753
DTLB PREFETCH  REQUESTED:          0  ISSUED:          0  USEFUL:          0  USELESS:          0
DTLB USEFUL LOAD PREFETCHES:          0 PREFETCH ISSUED TO LOWER LEVEL:          0  ACCURACY: -nan
DTLB TIMELY PREFETCHES:          0 LATE PREFETCHES: 0 DROPPED PREFETCHES: 0
DTLB COMMIT LATE PREFETCHES: 0 MISSED OPPORTUNITY: 0 LATE IN PQ: 0 UNCOVERED: 0
DTLB COMMIT LATE MSHR PREFETCHES: 0
DTLB MPKI TOTAL: 0 MSHR LATE: 0 PQ LATE: 0 COMMIT LATE: 0 MISSED OPPORTUNITY: 0 UNCOVERED: 0
DTLB PREFETCHES SAME FILL-ORIGIN LEVEL: 0 DIFFERENT FILL-ORIGIN LEVEL: 0
DTLB AVERAGE MISS LATENCY: 113.409 cycles
DTLB AVERAGE MISS LATENCY LOAD: -nan cycles
DTLB AVERAGE MISS LATENCY PREFETCH: -nan cycles
DTLB AVERAGE MSHR OCCUPANCY: 0.00482477
DTLB MSHR FULL: 0
DTLB RQ	ACCESS:   36940419	FORWARD:          0	MERGED:    5532104	TO_CACHE:   31408315

STLB SPEC fills:          0  NON-SPEC fills:          0
STLB Test counter :          0
STLB Leapfrog:          0
STLB MSHR merge:          0
STLB TOTAL     ACCESS:     273507  HIT:       9931  MISS:     263576  HIT %:    3.63099  MISS %:     96.369   MPKI: 1.31788
STLB LOAD TRANSLATION NON_SPEC    ACCESS:     273507  HIT:       9931  MISS:     263576  HIT %:    3.63099  MISS %:     96.369   MPKI: 1.31788
STLB PREFETCH  REQUESTED:          0  ISSUED:          0  USEFUL:          0  USELESS:          0
STLB USEFUL LOAD PREFETCHES:          0 PREFETCH ISSUED TO LOWER LEVEL:          0  ACCURACY: -nan
STLB TIMELY PREFETCHES:          0 LATE PREFETCHES: 0 DROPPED PREFETCHES: 0
STLB COMMIT LATE PREFETCHES: 0 MISSED OPPORTUNITY: 0 LATE IN PQ: 0 UNCOVERED: 0
STLB COMMIT LATE MSHR PREFETCHES: 0
STLB MPKI TOTAL: 0 MSHR LATE: 0 PQ LATE: 0 COMMIT LATE: 0 MISSED OPPORTUNITY: 0 UNCOVERED: 0
STLB PREFETCHES SAME FILL-ORIGIN LEVEL: 0 DIFFERENT FILL-ORIGIN LEVEL: 0
STLB AVERAGE MISS LATENCY: 108.341 cycles
STLB AVERAGE MISS LATENCY LOAD: -nan cycles
STLB AVERAGE MISS LATENCY PREFETCH: -nan cycles
STLB AVERAGE MSHR OCCUPANCY: 0.0037659
STLB MSHR FULL: 0
STLB RQ	ACCESS:     273507	FORWARD:          0	MERGED:          0	TO_CACHE:     273507

STLB Hit, L1D data hit: 0
STLB Hit, L2C data hit: 0
STLB Hit, LLC data hit: 0
STLB Hit, LLC data miss: 0
STLB STLB hints to L2: 0
L0D SPEC fills:   13805954  NON-SPEC fills:          0
L0D TimeGuard Request with older TS:      43156 Restricted eviction:       2269 read:      77241
L0D Test counter :          0
L0D Leapfrog:          0
L0D MSHR merge:    5155090
L0D TOTAL     ACCESS:   28832466  HIT:    1299776  MISS:   27532690  HIT %:    4.50803  MISS %:     95.492   MPKI: 137.663
L0D LOAD      TOTAL       ACCESS:   28832466  HIT:    1299776  MISS:   27532690  HIT %:    4.50803  MISS %:     95.492   MPKI: 137.663
L0D LOAD      NON_SPEC    ACCESS:   13757537  HIT:      33070  MISS:   13724467  HIT %:   0.240377  MISS %:    99.7596   MPKI: 68.6223
L0D LOAD      SPEC        ACCESS:   15074929  HIT:    1266706  MISS:   13808223  HIT %:    8.40273  MISS %:    91.5973   MPKI: 69.0411
L0D PREFETCH  REQUESTED:          0  ISSUED:          0  USEFUL:          0  USELESS:          0
L0D USEFUL LOAD PREFETCHES:          0 PREFETCH ISSUED TO LOWER LEVEL:          0  ACCURACY: -nan
L0D TIMELY PREFETCHES:          0 LATE PREFETCHES: 0 DROPPED PREFETCHES: 0
L0D COMMIT LATE PREFETCHES: 0 MISSED OPPORTUNITY: 0 LATE IN PQ: 0 UNCOVERED: 0
L0D COMMIT LATE MSHR PREFETCHES: 0
L0D MPKI TOTAL: 163.439 MSHR LATE: 0 PQ LATE: 0 COMMIT LATE: 0 MISSED OPPORTUNITY: 0 UNCOVERED: 0
L0D PREFETCHES SAME FILL-ORIGIN LEVEL: 0 DIFFERENT FILL-ORIGIN LEVEL: 0
L0D AVERAGE MISS LATENCY: 14.6269 cycles
L0D AVERAGE MISS LATENCY LOAD: 14.6269 cycles
L0D AVERAGE MISS LATENCY PREFETCH: -nan cycles
L0D AVERAGE MSHR OCCUPANCY: 0.418767
L0D MSHR FULL: 7.7905e-05
L0D RQ	ACCESS:   71766607	FORWARD:          0	MERGED:   37779052	TO_CACHE:   33987555
L0D WQ	ACCESS:    2952864	FORWARD:          0	MERGED:          0	TO_CACHE:    2952864

L1D SPEC fills:          0  NON-SPEC fills:    8560943
L1D Test counter :          0
L1D Leapfrog:          0
L1D MSHR merge:        182
L1D TOTAL     ACCESS:   61765118  HIT:   41921032  MISS:   19844086  HIT %:    67.8717  MISS %:    32.1283   MPKI: 99.2204
L1D LOAD      TOTAL       ACCESS:   27532508  HIT:   13328897  MISS:   14203611  HIT %:    48.4115  MISS %:    51.5885   MPKI: 71.0181
L1D LOAD      NON_SPEC    ACCESS:   13724460  HIT:    5163517  MISS:    8560943  HIT %:    37.6227  MISS %:    62.3773   MPKI: 42.8047
L1D LOAD      SPEC        ACCESS:   13808048  HIT:    8165380  MISS:    5642668  HIT %:    59.1349  MISS %:    40.8651   MPKI: 28.2133
L1D RFO       NON_SPEC    ACCESS:    2945215  HIT:    2939728  MISS:       5487  HIT %:    99.8137  MISS %:   0.186302   MPKI: 0.027435
L1D COMMIT LOAD NON_SPEC    ACCESS:   20717627  HIT:   20716051  MISS:       1576  HIT %:    99.9924  MISS %: 0.00760705   MPKI: 0.00788
L1D COMMIT WRITE NON_SPEC    ACCESS:   10569768  HIT:    4936356  MISS:    5633412  HIT %:    46.7026  MISS %:    53.2974   MPKI: 28.1671
L1D PREFETCH  REQUESTED:          0  ISSUED:          0  USEFUL:          0  USELESS:          0
L1D USEFUL LOAD PREFETCHES:          0 PREFETCH ISSUED TO LOWER LEVEL:          0  ACCURACY: -nan
L1D TIMELY PREFETCHES:          0 LATE PREFETCHES: 0 DROPPED PREFETCHES: 0
L1D COMMIT LATE PREFETCHES: 0 MISSED OPPORTUNITY: 0 LATE IN PQ: 0 UNCOVERED: 0
L1D COMMIT LATE MSHR PREFETCHES: 0
L1D MPKI TOTAL: 71.019 MSHR LATE: 0 PQ LATE: 0 COMMIT LATE: 0 MISSED OPPORTUNITY: 0 UNCOVERED: 0
L1D PREFETCHES SAME FILL-ORIGIN LEVEL: 0 DIFFERENT FILL-ORIGIN LEVEL: 0
L1D AVERAGE MISS LATENCY: 13.3786 cycles
L1D AVERAGE MISS LATENCY LOAD: 18.6542 cycles
L1D AVERAGE MISS LATENCY PREFETCH: -nan cycles
L1D AVERAGE MSHR OCCUPANCY: 0.123949
L1D MSHR FULL: 0
L1D RQ	ACCESS:   53155082	FORWARD:          0	MERGED:    4893668	TO_CACHE:   48250387
L1D WQ	ACCESS:   13522764	FORWARD:      11027	MERGED:       7739	TO_CACHE:   13515025

L1D UNIQUE REGIONS ACCESSED: 0
L1D REGIONS CONFLICTS: 0
L1D Cross Page Prefetch Requests: 0
L1D Same Page Prefetch Requests: 0
L1D ROI Sum of L1D PQ occupancy: 0
L1D PREFETCHES PUSHED FROM L2C: 0
L1I SPEC fills:          0  NON-SPEC fills:          0
L1I Test counter :          0
L1I Leapfrog:          0
L1I MSHR merge:          2
L1I TOTAL     ACCESS:   40066473  HIT:   40066448  MISS:         25  HIT %:    99.9999  MISS %: 6.23963e-05   MPKI: 0.000125
L1I LOAD      TOTAL       ACCESS:   40066473  HIT:   40066448  MISS:         25  HIT %:    99.9999  MISS %: 6.23963e-05   MPKI: 0.000125
L1I LOAD      NON_SPEC    ACCESS:   40066473  HIT:   40066448  MISS:         25  HIT %:    99.9999  MISS %: 6.23963e-05   MPKI: 0.000125
L1I PREFETCH  REQUESTED:          0  ISSUED:          0  USEFUL:          0  USELESS:          0
L1I USEFUL LOAD PREFETCHES:          0 PREFETCH ISSUED TO LOWER LEVEL:          0  ACCURACY: -nan
L1I TIMELY PREFETCHES:          0 LATE PREFETCHES: 0 DROPPED PREFETCHES: 0
L1I COMMIT LATE PREFETCHES: 0 MISSED OPPORTUNITY: 0 LATE IN PQ: 0 UNCOVERED: 0
L1I COMMIT LATE MSHR PREFETCHES: 0
L1I MPKI TOTAL: 0.000135 MSHR LATE: 0 PQ LATE: 0 COMMIT LATE: 0 MISSED OPPORTUNITY: 0 UNCOVERED: 0
L1I PREFETCHES SAME FILL-ORIGIN LEVEL: 0 DIFFERENT FILL-ORIGIN LEVEL: 0
L1I AVERAGE MISS LATENCY: 219.92 cycles
L1I AVERAGE MISS LATENCY LOAD: 219.92 cycles
L1I AVERAGE MISS LATENCY PREFETCH: -nan cycles
L1I AVERAGE MSHR OCCUPANCY: 3.24461e-07
L1I MSHR FULL: 0
L1I RQ	ACCESS:   58531774	FORWARD:          0	MERGED:   18465298	TO_CACHE:   40066476

BTB SPEC fills:          0  NON-SPEC fills:          0
BTB Test counter :          0
BTB Leapfrog:          0
BTB MSHR merge:          0
BTB TOTAL     ACCESS:   47939700  HIT:   47938638  MISS:       1062  HIT %:    99.9978  MISS %: 0.00221528   MPKI: 0.00531
BTB BRANCH_DIRECT_JUMP	ACCESS:     685292  HIT:     685256  MISS:         36
BTB BRANCH_INDIRECT	ACCESS:          0  HIT:          0  MISS:          0
BTB BRANCH_CONDITIONAL	ACCESS:   46577607  HIT:   46577529  MISS:         78
BTB BRANCH_DIRECT_CALL	ACCESS:     338400  HIT:     338384  MISS:         16
BTB BRANCH_INDIRECT_CALL	ACCESS:          0  HIT:          0  MISS:          0
BTB BRANCH_RETURN	ACCESS:     338401  HIT:     337469  MISS:        932
BTB BRANCH_OTHER ACCESS:          0  HIT:          0  MISS:          0

L2C SPEC fills:          0  NON-SPEC fills:     327126
L2C Test counter :          0
L2C Leapfrog:          0
L2C MSHR merge:     114452
L2C TOTAL     ACCESS:   33478977  HIT:   18745671  MISS:   14733306  HIT %:    55.9924  MISS %:    44.0076   MPKI: 73.6665
L2C LOAD      TOTAL       ACCESS:   14203630  HIT:   13656424  MISS:     547206  HIT %:    96.1474  MISS %:    3.85258   MPKI: 2.73603
L2C LOAD      NON_SPEC    ACCESS:    8560962  HIT:    8233811  MISS:     327151  HIT %:    96.1786  MISS %:    3.82143   MPKI: 1.63576
L2C LOAD      SPEC        ACCESS:    5642668  HIT:    5422613  MISS:     220055  HIT %:    96.1002  MISS %:    3.89984   MPKI: 1.10027
L2C RFO       NON_SPEC    ACCESS:       5487  HIT:       2695  MISS:       2792  HIT %:    49.1161  MISS %:    50.8839   MPKI: 0.01396
L2C PREFETCH  NON_SPEC    ACCESS:   15431052  HIT:    1529346  MISS:   13901706  HIT %:    9.91083  MISS %:    90.0892   MPKI: 69.5085
L2C WRITEBACK NON_SPEC    ACCESS:       5946  HIT:       5940  MISS:          6  HIT %:    99.8991  MISS %:   0.100908   MPKI: 3e-05
L2C CLEAN_EVICTION NON_SPEC    ACCESS:    2513413  HIT:    2294437  MISS:     218976  HIT %:    91.2877  MISS %:     8.7123   MPKI: 1.09488
L2C COMMIT LOAD NON_SPEC    ACCESS:       1576  HIT:       1440  MISS:        136  HIT %:    91.3706  MISS %:    8.62944   MPKI: 0.00068
L2C LOAD TRANSLATION NON_SPEC    ACCESS:    1317873  HIT:    1255389  MISS:      62484  HIT %:    95.2587  MISS %:    4.74128   MPKI: 0.31242
L2C PREFETCH  REQUESTED:   16076033  ISSUED:   16076033  USEFUL:   13449214  USELESS:     452573
L2C USEFUL LOAD PREFETCHES:   13449214 PREFETCH ISSUED TO LOWER LEVEL:   14067934  ACCURACY: 95.6019
L2C TIMELY PREFETCHES:   13449214 LATE PREFETCHES: 114452 DROPPED PREFETCHES: 0
L2C COMMIT LATE PREFETCHES: 0 MISSED OPPORTUNITY: 0 LATE IN PQ: 0 UNCOVERED: 0
L2C COMMIT LATE MSHR PREFETCHES: 0
L2C MPKI TOTAL: 2.73603 MSHR LATE: 0.57226 PQ LATE: 0 COMMIT LATE: 0 MISSED OPPORTUNITY: 0 UNCOVERED: 0
L2C PREFETCHES SAME FILL-ORIGIN LEVEL: 14016158 DIFFERENT FILL-ORIGIN LEVEL: 51776
L2C AVERAGE MISS LATENCY: 142.308 cycles
L2C AVERAGE MISS LATENCY LOAD: 138.079 cycles
L2C AVERAGE MISS LATENCY PREFETCH: 144.507 cycles
L2C AVERAGE MSHR OCCUPANCY: 3.16422
L2C MSHR FULL: 0
L2C RQ	ACCESS:   15528572	FORWARD:          0	MERGED:          0	TO_CACHE:   15528566
L2C WQ	ACCESS:    2519359	FORWARD:          6	MERGED:          0	TO_CACHE:    2519359
L2C PQ	ACCESS:   16076033	FORWARD:          0	MERGED:      21531	TO_CACHE:   16054502

L2C Instructions Evicting Data 25
L2C Translations Evicting Data 62299
L2C Data Evicting Data 14170566
L2C Instructions Evicting Instructions 0
L2C Translations Evicting Instructions 0
L2C Data Evicting Instructions 25
L2C Instructions Evicting Translations 0
L2C Translations Evicting Translations 185
L2C Data Evicting Translations 61169
L2C Dense regions hint from L2: 0
PSCL5 SPEC fills:          0  NON-SPEC fills:          0
PSCL5 Test counter :          0
PSCL5 Leapfrog:          0
PSCL5 MSHR merge:          0
PSCL5 TOTAL     ACCESS:          0  HIT:          0  MISS:          0  HIT %:       -nan  MISS %:       -nan   MPKI: 0
PSCL5 PREFETCH  REQUESTED:          0  ISSUED:          0  USEFUL:          0  USELESS:          0
PSCL5 USEFUL LOAD PREFETCHES:          0 PREFETCH ISSUED TO LOWER LEVEL:          0  ACCURACY: -nan
PSCL5 TIMELY PREFETCHES:          0 LATE PREFETCHES: 0 DROPPED PREFETCHES: 0
PSCL5 COMMIT LATE PREFETCHES: 0 MISSED OPPORTUNITY: 0 LATE IN PQ: 0 UNCOVERED: 0
PSCL5 COMMIT LATE MSHR PREFETCHES: 0
PSCL5 MPKI TOTAL: 0 MSHR LATE: 0 PQ LATE: 0 COMMIT LATE: 0 MISSED OPPORTUNITY: 0 UNCOVERED: 0
PSCL5 PREFETCHES SAME FILL-ORIGIN LEVEL: 0 DIFFERENT FILL-ORIGIN LEVEL: 0

PSCL4 SPEC fills:          0  NON-SPEC fills:          0
PSCL4 Test counter :          0
PSCL4 Leapfrog:          0
PSCL4 MSHR merge:          0
PSCL4 TOTAL     ACCESS:          0  HIT:          0  MISS:          0  HIT %:       -nan  MISS %:       -nan   MPKI: 0
PSCL4 PREFETCH  REQUESTED:          0  ISSUED:          0  USEFUL:          0  USELESS:          0
PSCL4 USEFUL LOAD PREFETCHES:          0 PREFETCH ISSUED TO LOWER LEVEL:          0  ACCURACY: -nan
PSCL4 TIMELY PREFETCHES:          0 LATE PREFETCHES: 0 DROPPED PREFETCHES: 0
PSCL4 COMMIT LATE PREFETCHES: 0 MISSED OPPORTUNITY: 0 LATE IN PQ: 0 UNCOVERED: 0
PSCL4 COMMIT LATE MSHR PREFETCHES: 0
PSCL4 MPKI TOTAL: 0 MSHR LATE: 0 PQ LATE: 0 COMMIT LATE: 0 MISSED OPPORTUNITY: 0 UNCOVERED: 0
PSCL4 PREFETCHES SAME FILL-ORIGIN LEVEL: 0 DIFFERENT FILL-ORIGIN LEVEL: 0

PSCL3 SPEC fills:          0  NON-SPEC fills:          0
PSCL3 Test counter :          0
PSCL3 Leapfrog:          0
PSCL3 MSHR merge:          0
PSCL3 TOTAL     ACCESS:          0  HIT:          0  MISS:          0  HIT %:       -nan  MISS %:       -nan   MPKI: 0
PSCL3 PREFETCH  REQUESTED:          0  ISSUED:          0  USEFUL:          0  USELESS:          0
PSCL3 USEFUL LOAD PREFETCHES:          0 PREFETCH ISSUED TO LOWER LEVEL:          0  ACCURACY: -nan
PSCL3 TIMELY PREFETCHES:          0 LATE PREFETCHES: 0 DROPPED PREFETCHES: 0
PSCL3 COMMIT LATE PREFETCHES: 0 MISSED OPPORTUNITY: 0 LATE IN PQ: 0 UNCOVERED: 0
PSCL3 COMMIT LATE MSHR PREFETCHES: 0
PSCL3 MPKI TOTAL: 0 MSHR LATE: 0 PQ LATE: 0 COMMIT LATE: 0 MISSED OPPORTUNITY: 0 UNCOVERED: 0
PSCL3 PREFETCHES SAME FILL-ORIGIN LEVEL: 0 DIFFERENT FILL-ORIGIN LEVEL: 0

PSCL2 SPEC fills:          0  NON-SPEC fills:          0
PSCL2 Test counter :          0
PSCL2 Leapfrog:          0
PSCL2 MSHR merge:          0
PSCL2 TOTAL     ACCESS:          0  HIT:          0  MISS:          0  HIT %:       -nan  MISS %:       -nan   MPKI: 0
PSCL2 PREFETCH  REQUESTED:          0  ISSUED:          0  USEFUL:          0  USELESS:          0
PSCL2 USEFUL LOAD PREFETCHES:          0 PREFETCH ISSUED TO LOWER LEVEL:          0  ACCURACY: -nan
PSCL2 TIMELY PREFETCHES:          0 LATE PREFETCHES: 0 DROPPED PREFETCHES: 0
PSCL2 COMMIT LATE PREFETCHES: 0 MISSED OPPORTUNITY: 0 LATE IN PQ: 0 UNCOVERED: 0
PSCL2 COMMIT LATE MSHR PREFETCHES: 0
PSCL2 MPKI TOTAL: 0 MSHR LATE: 0 PQ LATE: 0 COMMIT LATE: 0 MISSED OPPORTUNITY: 0 UNCOVERED: 0
PSCL2 PREFETCHES SAME FILL-ORIGIN LEVEL: 0 DIFFERENT FILL-ORIGIN LEVEL: 0

LLC SPEC fills:          0  NON-SPEC fills:     246479
LLC Test counter :          0
LLC Leapfrog:          0
LLC MSHR merge:          1
LLC TOTAL     ACCESS:   17084698  HIT:    2408320  MISS:   14676378  HIT %:    14.0964  MISS %:    85.9036   MPKI: 73.3819
LLC LOAD      TOTAL       ACCESS:     432753  HIT:      17327  MISS:     415426  HIT %:     4.0039  MISS %:    95.9961   MPKI: 2.07713
LLC LOAD      NON_SPEC    ACCESS:     250821  HIT:       4317  MISS:     246504  HIT %:    1.72115  MISS %:    98.2789   MPKI: 1.23252
LLC LOAD      SPEC        ACCESS:     181932  HIT:      13010  MISS:     168922  HIT %:    7.15102  MISS %:     92.849   MPKI: 0.84461
LLC RFO       NON_SPEC    ACCESS:       2792  HIT:        903  MISS:       1889  HIT %:    32.3424  MISS %:    67.6576   MPKI: 0.009445
LLC PREFETCH  NON_SPEC    ACCESS:   14067915  HIT:      36015  MISS:   14031900  HIT %:   0.256008  MISS %:     99.744   MPKI: 70.1595
LLC WRITEBACK NON_SPEC    ACCESS:       5935  HIT:       5928  MISS:          7  HIT %:    99.8821  MISS %:   0.117944   MPKI: 3.5e-05
LLC CLEAN_EVICTION NON_SPEC    ACCESS:    2512683  HIT:    2344679  MISS:     168004  HIT %:    93.3138  MISS %:    6.68624   MPKI: 0.84002
LLC COMMIT LOAD NON_SPEC    ACCESS:        136  HIT:         41  MISS:         95  HIT %:    30.1471  MISS %:    69.8529   MPKI: 0.000475
LLC LOAD TRANSLATION NON_SPEC    ACCESS:      62484  HIT:       3427  MISS:      59057  HIT %:     5.4846  MISS %:    94.5154   MPKI: 0.295285
LLC PREFETCH  REQUESTED:          0  ISSUED:          0  USEFUL:       7195  USELESS:   14024633
LLC USEFUL LOAD PREFETCHES:       7195 PREFETCH ISSUED TO LOWER LEVEL:   14031901  ACCURACY: 0.051276
LLC TIMELY PREFETCHES:       7195 LATE PREFETCHES: 1 DROPPED PREFETCHES: 0
LLC COMMIT LATE PREFETCHES: 0 MISSED OPPORTUNITY: 0 LATE IN PQ: 0 UNCOVERED: 0
LLC COMMIT LATE MSHR PREFETCHES: 0
LLC MPKI TOTAL: 2.07713 MSHR LATE: 5e-06 PQ LATE: 0 COMMIT LATE: 0 MISSED OPPORTUNITY: 0 UNCOVERED: 0
LLC PREFETCHES SAME FILL-ORIGIN LEVEL: 32392 DIFFERENT FILL-ORIGIN LEVEL: 0
LLC AVERAGE MISS LATENCY: 114.718 cycles
LLC AVERAGE MISS LATENCY LOAD: 137.113 cycles
LLC AVERAGE MISS LATENCY PREFETCH: 115.197 cycles
LLC AVERAGE MSHR OCCUPANCY: 0.857796
LLC MSHR FULL: 0
LLC RQ	ACCESS:     498166	FORWARD:          0	MERGED:          0	TO_CACHE:     498165
LLC WQ	ACCESS:    2518618	FORWARD:          1	MERGED:          0	TO_CACHE:    2518618
LLC PQ	ACCESS:   14067934	FORWARD:          0	MERGED:          1	TO_CACHE:   14067933

LLC Dense regions hint to LLC: 0

RAW hits: 20970
Loads Generated: 71787578
Loads sent to L1D: 71766607
Stores Generated: 2952864
Stores sent to L1D: 2952864
Major fault: 0 Minor fault: 49083
Allocated PAGES: 49083
Total Load insts: 89691353
Total Non-spec loads: 14200849
Percentage of speculative loads: 84.167

LeapFrogging counter: 1261
Commit hits: 13798002 miss: 44198111
Commit hit %: 23.7913 miss %: 76.2087
Commits not translated: 0
Loads retired: 14203611
Stores retired: 2952864
Cache fills: 14203611
L1D response latency: 18.6542 cycles
Load retirement latency: 30.6019 cycles
OOO test counter: 0
Discarded buffer inserts: 13798002 hits: 3430 hit %: 0.0248587
Filter prediction accuracy: 99.7772
------------------
Depth Distribution
------------------
depth 0: 85852
depth 1: 87841
depth 2: 36052
depth 3: 28467
depth 4: 14092
depth 5: 22018
depth 6: 38889
depth 7: 65962
depth 8: 77773
depth 9: 553045
depth 10: 587706
depth 11: 6094163
depth 12: 5662540
depth 13: 1296812
depth 14: 2981248
depth 15: 81240
depth 16: 30822
depth 17: 8769
depth 18: 2697
depth 19: 110
depth 20: 2
depth 21: 0
depth 22: 1
depth 23: 0
depth 24: 1
depth 25: 0
depth 26: 0
depth 27: 0
depth 28: 0
depth 29: 1
Total: 17756103
------------------
ST read accesses: 13941199
ST write accesses: 262406
PT read accesses: 903272376
PT write accesses: 20707202
FILTER read accesses: 179046567
FILTER write accesses: 58795511
GHR read accesses: 103071995
GHR write accesses: 17464350
PERC read accesses: 6515336331
PERC write accesses: 137320705
GHR counter read accesses: 28407210
GHR counter write accesses: 44194775
GHR ip read accesses: 91617423
GHR ip write accesses: 56814420
ST tag read accesses: 5642392357
ST tag write accesses: 90168164

DRAM Statistics
 CHANNEL 0
 RQ ROW_BUFFER_HIT:    8366719  ROW_BUFFER_MISS:    6141648
 DBUS_CONGESTED:     133511
 WQ ROW_BUFFER_HIT:     374754  ROW_BUFFER_MISS:    2135096  FULL:          0

 AVG_CONGESTED_CYCLE: 4
 All warmup complete: 2
Channel 0 Bank busy for read cycles: 0
Channel 0 Bank busy for write cycles: 0
Channel 0
Rank 0
0banks busy for read cycles: 19507324
0banks busy for write cycles: 122980
1banks busy for read cycles: 99673619
1banks busy for write cycles: 16317281
2banks busy for read cycles: 96685941
2banks busy for write cycles: 15917123
3banks busy for read cycles: 88281263
3banks busy for write cycles: 15864989
4banks busy for read cycles: 62337233
4banks busy for write cycles: 16042003
5banks busy for read cycles: 38991547
5banks busy for write cycles: 16553439
6banks busy for read cycles: 20404878
6banks busy for write cycles: 17271297
7banks busy for read cycles: 11529310
7banks busy for write cycles: 17308809
8banks busy for read cycles: 16901798
8banks busy for write cycles: 13753904

CPU 0 Branch Prediction Accuracy: 99.7034% MPKI: 1.05731 Average ROB Occupancy at Mispredict: 257.185
Branch types
NOT_BRANCH: 128713668 64.3568%
BRANCH_DIRECT_JUMP: 685292 0.342646%
BRANCH_INDIRECT: 0 0%
BRANCH_CONDITIONAL: 69924231 34.9621%
BRANCH_DIRECT_CALL: 338400 0.1692%
BRANCH_INDIRECT_CALL: 0 0%
BRANCH_RETURN: 338401 0.169201%
BRANCH_OTHER: 0 0%

DRAM PAGES: 1048576
Allocated PAGES: 49083
