Initialize SIGNATURE TABLE
ST_SET: 1
ST_WAY: 256
ST_TAG_BIT: 16
ST_TAG_MASK: ffff

Initialize PATTERN TABLE
PT_SET: 512
PT_WAY: 4
SIG_DELTA_BIT: 7
C_SIG_BIT: 4
C_DELTA_BIT: 4

Initialize PREFETCH FILTER
FILTER_SET: 1024

Initialize PERCEPTRON
PERC_ENTRIES: 4096
PERC_FEATURES: 9

*** ChampSim Multicore Out-of-Order Simulator ***

Warmup Instructions: 50000000
Simulation Instructions: 200000000
Number of CPUs: 1
LLC sets: 2048
LLC ways: 16
L0D sets: 16
L0D ways: 2
ROB size: 352
LQ size: 128
SQ size: 72
Secure Berti: OFF
Berti: OFF
Berti Fill: OFF
On commit prefetching: OFF
Hit-based filter: ON
Time-guarding: ON
Free-slotting: ON
Leap-frogging: ON
Train prefetcher on L0D bypass: OFF
No translation penalty for prefetchers: OFF
Prefetch to L0D only: OFF
Prefetch to L1D only: OFF
Clean evictions: ON
Commit loads: ON
Commit write: ON
Fill commit loads to L2C, LLC: ON
DRAM IO FREQUENCY: 6400
ROB SIZE: 352
Off-chip DRAM Size: 4096 MB Channels: 1 Width: 64-bit Data Rate: 6400 MT/s
CPU 0 runs /home/sumon/secure_berti/GhostMinion/../../traces/spec/603.bwaves_s-1740B.champsimtrace.xz
.xz
BTB has LRU replacement policy
ITLB has LRU replacement policy
DTLB has LRU replacement policy
STLB has LRU replacement policy
L1I has LRU replacement policy
L0D has LRU replacement policy
L1D has LRU replacement policy
PERC_ENTRIES: 4096
L2C has LRU replacement policy
LLC has LRU replacement policy
Heartbeat CPU 0 instructions: 10000000 cycles: 3584752 heartbeat IPC: 2.78959 cumulative IPC: 2.78959 (Simulation time: 0 hr 0 min 35 sec) 
Heartbeat CPU 0 instructions: 20000002 cycles: 7169762 heartbeat IPC: 2.78939 cumulative IPC: 2.78949 (Simulation time: 0 hr 1 min 11 sec) 
Heartbeat CPU 0 instructions: 30000000 cycles: 10754345 heartbeat IPC: 2.78972 cumulative IPC: 2.78957 (Simulation time: 0 hr 1 min 46 sec) 
Heartbeat CPU 0 instructions: 40000001 cycles: 14338599 heartbeat IPC: 2.78998 cumulative IPC: 2.78967 (Simulation time: 0 hr 2 min 21 sec) 
Heartbeat CPU 0 instructions: 50000003 cycles: 17922682 heartbeat IPC: 2.79011 cumulative IPC: 2.78976 (Simulation time: 0 hr 2 min 56 sec) 

Warmup complete CPU 0 instructions: 50000003 cycles: 17922682 (Simulation time: 0 hr 2 min 56 sec) 

Heartbeat CPU 0 instructions: 60000000 cycles: 27700960 heartbeat IPC: 1.02267 cumulative IPC: 1.02267 (Simulation time: 0 hr 3 min 36 sec) 
Heartbeat CPU 0 instructions: 70000000 cycles: 37475922 heartbeat IPC: 1.02302 cumulative IPC: 1.02285 (Simulation time: 0 hr 4 min 16 sec) 
Heartbeat CPU 0 instructions: 80000002 cycles: 47246429 heartbeat IPC: 1.02349 cumulative IPC: 1.02306 (Simulation time: 0 hr 4 min 56 sec) 
Heartbeat CPU 0 instructions: 90000001 cycles: 57043610 heartbeat IPC: 1.0207 cumulative IPC: 1.02247 (Simulation time: 0 hr 5 min 36 sec) 
Heartbeat CPU 0 instructions: 100000002 cycles: 66824076 heartbeat IPC: 1.02245 cumulative IPC: 1.02247 (Simulation time: 0 hr 6 min 16 sec) 
Heartbeat CPU 0 instructions: 110000000 cycles: 76597221 heartbeat IPC: 1.02321 cumulative IPC: 1.02259 (Simulation time: 0 hr 6 min 57 sec) 
Heartbeat CPU 0 instructions: 120000002 cycles: 86377772 heartbeat IPC: 1.02244 cumulative IPC: 1.02257 (Simulation time: 0 hr 7 min 37 sec) 
Heartbeat CPU 0 instructions: 130000000 cycles: 96161494 heartbeat IPC: 1.02211 cumulative IPC: 1.02251 (Simulation time: 0 hr 8 min 19 sec) 
Heartbeat CPU 0 instructions: 140000003 cycles: 105947840 heartbeat IPC: 1.02183 cumulative IPC: 1.02243 (Simulation time: 0 hr 9 min 0 sec) 
Heartbeat CPU 0 instructions: 150000002 cycles: 115731015 heartbeat IPC: 1.02216 cumulative IPC: 1.02241 (Simulation time: 0 hr 9 min 41 sec) 
Heartbeat CPU 0 instructions: 160000003 cycles: 125519933 heartbeat IPC: 1.02156 cumulative IPC: 1.02233 (Simulation time: 0 hr 10 min 22 sec) 
Heartbeat CPU 0 instructions: 170000000 cycles: 135296206 heartbeat IPC: 1.02288 cumulative IPC: 1.02238 (Simulation time: 0 hr 11 min 3 sec) 
Heartbeat CPU 0 instructions: 180000001 cycles: 145084229 heartbeat IPC: 1.02166 cumulative IPC: 1.02232 (Simulation time: 0 hr 11 min 45 sec) 
Heartbeat CPU 0 instructions: 190000000 cycles: 154865287 heartbeat IPC: 1.02238 cumulative IPC: 1.02233 (Simulation time: 0 hr 12 min 26 sec) 
Heartbeat CPU 0 instructions: 200000001 cycles: 164637577 heartbeat IPC: 1.0233 cumulative IPC: 1.02239 (Simulation time: 0 hr 13 min 5 sec) 
Heartbeat CPU 0 instructions: 210000003 cycles: 174408013 heartbeat IPC: 1.0235 cumulative IPC: 1.02246 (Simulation time: 0 hr 13 min 44 sec) 
Heartbeat CPU 0 instructions: 220000000 cycles: 184176373 heartbeat IPC: 1.02371 cumulative IPC: 1.02253 (Simulation time: 0 hr 14 min 20 sec) 
Heartbeat CPU 0 instructions: 230000000 cycles: 193957793 heartbeat IPC: 1.02235 cumulative IPC: 1.02252 (Simulation time: 0 hr 14 min 57 sec) 
Heartbeat CPU 0 instructions: 240000000 cycles: 203744313 heartbeat IPC: 1.02181 cumulative IPC: 1.02249 (Simulation time: 0 hr 15 min 33 sec) 
Heartbeat CPU 0 instructions: 250000000 cycles: 213523594 heartbeat IPC: 1.02257 cumulative IPC: 1.02249 (Simulation time: 0 hr 16 min 5 sec) 
Finished CPU 0 instructions: 200000001 cycles: 195600913 cumulative IPC: 1.02249 (Simulation time: 0 hr 16 min 5 sec) 
 Instruction ID: 250000043

ChampSim completed all CPUs

Region of Interest Statistics

CPU 0 cumulative IPC: 1.02249 instructions: 200000001 cycles: 195600913
ITLB SPEC fills:          0  NON-SPEC fills:          0
ITLB Test counter :          0
ITLB Leapfrog:          0
ITLB MSHR merge:          0
ITLB TOTAL     ACCESS:   25366204  HIT:   25366204  MISS:          0  HIT %:        100  MISS %:          0   MPKI: 0
ITLB LOAD TRANSLATION NON_SPEC    ACCESS:   25366204  HIT:   25366204  MISS:          0  HIT %:        100  MISS %:          0   MPKI: 0
ITLB PREFETCH  REQUESTED:          0  ISSUED:          0  USEFUL:          0  USELESS:          0
ITLB USEFUL LOAD PREFETCHES:          0 PREFETCH ISSUED TO LOWER LEVEL:          0  ACCURACY: -nan
ITLB TIMELY PREFETCHES:          0 LATE PREFETCHES: 0 DROPPED PREFETCHES: 0
ITLB COMMIT LATE PREFETCHES: 0 MISSED OPPORTUNITY: 0 LATE IN PQ: 0 UNCOVERED: 0
ITLB COMMIT LATE MSHR PREFETCHES: 0
ITLB MPKI TOTAL: 0 MSHR LATE: 0 PQ LATE: 0 COMMIT LATE: 0 MISSED OPPORTUNITY: 0 UNCOVERED: 0
ITLB PREFETCHES SAME FILL-ORIGIN LEVEL: 0 DIFFERENT FILL-ORIGIN LEVEL: 0
ITLB AVERAGE MISS LATENCY: -nan cycles
ITLB AVERAGE MISS LATENCY LOAD: -nan cycles
ITLB AVERAGE MISS LATENCY PREFETCH: -nan cycles
ITLB AVERAGE MSHR OCCUPANCY: 0
ITLB MSHR FULL: 0
ITLB RQ	ACCESS:   34409332	FORWARD:          0	MERGED:    9043129	TO_CACHE:   25366203

DTLB SPEC fills:          0  NON-SPEC fills:          0
DTLB Test counter :          0
DTLB Leapfrog:          0
DTLB MSHR merge:          0
DTLB TOTAL     ACCESS:   73642021  HIT:   73237844  MISS:     404177  HIT %:    99.4512  MISS %:    0.54884   MPKI: 2.02088
DTLB LOAD TRANSLATION NON_SPEC    ACCESS:   73642021  HIT:   73237844  MISS:     404177  HIT %:    99.4512  MISS %:    0.54884   MPKI: 2.02088
DTLB PREFETCH  REQUESTED:          0  ISSUED:          0  USEFUL:          0  USELESS:          0
DTLB USEFUL LOAD PREFETCHES:          0 PREFETCH ISSUED TO LOWER LEVEL:          0  ACCURACY: -nan
DTLB TIMELY PREFETCHES:          0 LATE PREFETCHES: 0 DROPPED PREFETCHES: 0
DTLB COMMIT LATE PREFETCHES: 0 MISSED OPPORTUNITY: 0 LATE IN PQ: 0 UNCOVERED: 0
DTLB COMMIT LATE MSHR PREFETCHES: 0
DTLB MPKI TOTAL: 0 MSHR LATE: 0 PQ LATE: 0 COMMIT LATE: 0 MISSED OPPORTUNITY: 0 UNCOVERED: 0
DTLB PREFETCHES SAME FILL-ORIGIN LEVEL: 0 DIFFERENT FILL-ORIGIN LEVEL: 0
DTLB AVERAGE MISS LATENCY: 106.627 cycles
DTLB AVERAGE MISS LATENCY LOAD: -nan cycles
DTLB AVERAGE MISS LATENCY PREFETCH: -nan cycles
DTLB AVERAGE MSHR OCCUPANCY: 0.0347665
DTLB MSHR FULL: 2.16226e-05
DTLB RQ	ACCESS:   86392917	FORWARD:          0	MERGED:   12673651	TO_CACHE:   73719266

STLB SPEC fills:          0  NON-SPEC fills:          0
STLB Test counter :          0
STLB Leapfrog:          0
STLB MSHR merge:          0
STLB TOTAL     ACCESS:     404177  HIT:     344794  MISS:      59383  HIT %:    85.3077  MISS %:    14.6923   MPKI: 0.296915
STLB LOAD TRANSLATION NON_SPEC    ACCESS:     404177  HIT:     344794  MISS:      59383  HIT %:    85.3077  MISS %:    14.6923   MPKI: 0.296915
STLB PREFETCH  REQUESTED:          0  ISSUED:          0  USEFUL:          0  USELESS:          0
STLB USEFUL LOAD PREFETCHES:          0 PREFETCH ISSUED TO LOWER LEVEL:          0  ACCURACY: -nan
STLB TIMELY PREFETCHES:          0 LATE PREFETCHES: 0 DROPPED PREFETCHES: 0
STLB COMMIT LATE PREFETCHES: 0 MISSED OPPORTUNITY: 0 LATE IN PQ: 0 UNCOVERED: 0
STLB COMMIT LATE MSHR PREFETCHES: 0
STLB MPKI TOTAL: 0 MSHR LATE: 0 PQ LATE: 0 COMMIT LATE: 0 MISSED OPPORTUNITY: 0 UNCOVERED: 0
STLB PREFETCHES SAME FILL-ORIGIN LEVEL: 0 DIFFERENT FILL-ORIGIN LEVEL: 0
STLB AVERAGE MISS LATENCY: 663.98 cycles
STLB AVERAGE MISS LATENCY LOAD: -nan cycles
STLB AVERAGE MISS LATENCY PREFETCH: -nan cycles
STLB AVERAGE MSHR OCCUPANCY: 0.400468
STLB MSHR FULL: 0
STLB RQ	ACCESS:     404177	FORWARD:          0	MERGED:          0	TO_CACHE:     404177

STLB Hit, L1D data hit: 0
STLB Hit, L2C data hit: 0
STLB Hit, LLC data hit: 0
STLB Hit, LLC data miss: 0
STLB STLB hints to L2: 0
L0D SPEC fills:   48838375  NON-SPEC fills:          0
L0D TimeGuard Request with older TS:    1716112 Restricted eviction:   11918147 read:     159225
L0D Test counter :          0
L0D Leapfrog:          0
L0D MSHR merge:    2273522
L0D TOTAL     ACCESS:   72852573  HIT:    6465694  MISS:   66386879  HIT %:    8.87504  MISS %:     91.125   MPKI: 331.934
L0D LOAD      TOTAL       ACCESS:   72852573  HIT:    6465694  MISS:   66386879  HIT %:    8.87504  MISS %:     91.125   MPKI: 331.934
L0D LOAD      NON_SPEC    ACCESS:    5978589  HIT:     346318  MISS:    5632271  HIT %:    5.79264  MISS %:    94.2074   MPKI: 28.1614
L0D LOAD      SPEC        ACCESS:   66873984  HIT:    6119376  MISS:   60754608  HIT %:    9.15061  MISS %:    90.8494   MPKI: 303.773
L0D PREFETCH  REQUESTED:          0  ISSUED:          0  USEFUL:          0  USELESS:          0
L0D USEFUL LOAD PREFETCHES:          0 PREFETCH ISSUED TO LOWER LEVEL:          0  ACCURACY: -nan
L0D TIMELY PREFETCHES:          0 LATE PREFETCHES: 0 DROPPED PREFETCHES: 0
L0D COMMIT LATE PREFETCHES: 0 MISSED OPPORTUNITY: 0 LATE IN PQ: 0 UNCOVERED: 0
L0D COMMIT LATE MSHR PREFETCHES: 0
L0D MPKI TOTAL: 343.302 MSHR LATE: 0 PQ LATE: 0 COMMIT LATE: 0 MISSED OPPORTUNITY: 0 UNCOVERED: 0
L0D PREFETCHES SAME FILL-ORIGIN LEVEL: 0 DIFFERENT FILL-ORIGIN LEVEL: 0
L0D AVERAGE MISS LATENCY: 6.29164 cycles
L0D AVERAGE MISS LATENCY LOAD: 6.29164 cycles
L0D AVERAGE MISS LATENCY PREFETCH: -nan cycles
L0D AVERAGE MSHR OCCUPANCY: 1.98803
L0D MSHR FULL: 0.0141719
L0D RQ	ACCESS:   85437351	FORWARD:          0	MERGED:   10311259	TO_CACHE:   75126092
L0D WQ	ACCESS:   11266825	FORWARD:          0	MERGED:          0	TO_CACHE:   11266825

L1D SPEC fills:          0  NON-SPEC fills:      44784
L1D Test counter :          0
L1D Leapfrog:          0
L1D MSHR merge:     244678
L1D TOTAL     ACCESS:   81683800  HIT:   73532662  MISS:    8151138  HIT %:    90.0211  MISS %:    9.97889   MPKI: 40.7557
L1D LOAD      TOTAL       ACCESS:   66142202  HIT:   61951219  MISS:    4190983  HIT %:    93.6637  MISS %:    6.33632   MPKI: 20.9549
L1D LOAD      NON_SPEC    ACCESS:    5632110  HIT:    5587326  MISS:      44784  HIT %:    99.2048  MISS %:   0.795155   MPKI: 0.22392
L1D LOAD      SPEC        ACCESS:   60510092  HIT:   56363893  MISS:    4146199  HIT %:    93.1479  MISS %:    6.85208   MPKI: 20.731
L1D RFO       NON_SPEC    ACCESS:   11199973  HIT:   11102524  MISS:      97449  HIT %:    99.1299  MISS %:   0.870082   MPKI: 0.487245
L1D COMMIT LOAD NON_SPEC    ACCESS:    1620073  HIT:     218544  MISS:    1401529  HIT %:    13.4898  MISS %:    86.5102   MPKI: 7.00764
L1D COMMIT WRITE NON_SPEC    ACCESS:    2721552  HIT:     260375  MISS:    2461177  HIT %:    9.56715  MISS %:    90.4328   MPKI: 12.3059
L1D PREFETCH  REQUESTED:          0  ISSUED:          0  USEFUL:          0  USELESS:          0
L1D USEFUL LOAD PREFETCHES:          0 PREFETCH ISSUED TO LOWER LEVEL:          0  ACCURACY: -nan
L1D TIMELY PREFETCHES:          0 LATE PREFETCHES: 0 DROPPED PREFETCHES: 0
L1D COMMIT LATE PREFETCHES: 0 MISSED OPPORTUNITY: 0 LATE IN PQ: 0 UNCOVERED: 0
L1D COMMIT LATE MSHR PREFETCHES: 0
L1D MPKI TOTAL: 22.1783 MSHR LATE: 0 PQ LATE: 0 COMMIT LATE: 0 MISSED OPPORTUNITY: 0 UNCOVERED: 0
L1D PREFETCHES SAME FILL-ORIGIN LEVEL: 0 DIFFERENT FILL-ORIGIN LEVEL: 0
L1D AVERAGE MISS LATENCY: 14.1511 cycles
L1D AVERAGE MISS LATENCY LOAD: 16.0996 cycles
L1D AVERAGE MISS LATENCY PREFETCH: -nan cycles
L1D AVERAGE MSHR OCCUPANCY: 0.499377
L1D MSHR FULL: 9.52505e-07
L1D RQ	ACCESS:   68241161	FORWARD:          0	MERGED:         81	TO_CACHE:   68241080
L1D WQ	ACCESS:   13988377	FORWARD:          0	MERGED:        185	TO_CACHE:   13988192

L1D UNIQUE REGIONS ACCESSED: 0
L1D REGIONS CONFLICTS: 0
L1D Cross Page Prefetch Requests: 0
L1D Same Page Prefetch Requests: 0
L1D ROI Sum of L1D PQ occupancy: 0
L1D PREFETCHES PUSHED FROM L2C: 0
L1I SPEC fills:          0  NON-SPEC fills:          0
L1I Test counter :          0
L1I Leapfrog:          0
L1I MSHR merge:          0
L1I TOTAL     ACCESS:   34409331  HIT:   34409331  MISS:          0  HIT %:        100  MISS %:          0   MPKI: 0
L1I LOAD      TOTAL       ACCESS:   34409331  HIT:   34409331  MISS:          0  HIT %:        100  MISS %:          0   MPKI: 0
L1I LOAD      NON_SPEC    ACCESS:   34409331  HIT:   34409331  MISS:          0  HIT %:        100  MISS %:          0   MPKI: 0
L1I PREFETCH  REQUESTED:          0  ISSUED:          0  USEFUL:          0  USELESS:          0
L1I USEFUL LOAD PREFETCHES:          0 PREFETCH ISSUED TO LOWER LEVEL:          0  ACCURACY: -nan
L1I TIMELY PREFETCHES:          0 LATE PREFETCHES: 0 DROPPED PREFETCHES: 0
L1I COMMIT LATE PREFETCHES: 0 MISSED OPPORTUNITY: 0 LATE IN PQ: 0 UNCOVERED: 0
L1I COMMIT LATE MSHR PREFETCHES: 0
L1I MPKI TOTAL: 0 MSHR LATE: 0 PQ LATE: 0 COMMIT LATE: 0 MISSED OPPORTUNITY: 0 UNCOVERED: 0
L1I PREFETCHES SAME FILL-ORIGIN LEVEL: 0 DIFFERENT FILL-ORIGIN LEVEL: 0
L1I AVERAGE MISS LATENCY: -nan cycles
L1I AVERAGE MISS LATENCY LOAD: -nan cycles
L1I AVERAGE MISS LATENCY PREFETCH: -nan cycles
L1I AVERAGE MSHR OCCUPANCY: 0
L1I MSHR FULL: 0
L1I RQ	ACCESS:   45835435	FORWARD:          0	MERGED:   11426103	TO_CACHE:   34409332

BTB SPEC fills:          0  NON-SPEC fills:          0
BTB Test counter :          0
BTB Leapfrog:          0
BTB MSHR merge:          0
BTB TOTAL     ACCESS:    4834901  HIT:    4834896  MISS:          5  HIT %:    99.9999  MISS %: 0.000103415   MPKI: 2.5e-05
BTB BRANCH_DIRECT_JUMP	ACCESS:          0  HIT:          0  MISS:          0
BTB BRANCH_INDIRECT	ACCESS:          0  HIT:          0  MISS:          0
BTB BRANCH_CONDITIONAL	ACCESS:    4834901  HIT:    4834896  MISS:          5
BTB BRANCH_DIRECT_CALL	ACCESS:          0  HIT:          0  MISS:          0
BTB BRANCH_INDIRECT_CALL	ACCESS:          0  HIT:          0  MISS:          0
BTB BRANCH_RETURN	ACCESS:          0  HIT:          0  MISS:          0
BTB BRANCH_OTHER ACCESS:          0  HIT:          0  MISS:          0

L2C SPEC fills:          0  NON-SPEC fills:        883
L2C Test counter :          0
L2C Leapfrog:          0
L2C MSHR merge:      16949
L2C TOTAL     ACCESS:   11280129  HIT:    7342801  MISS:    3937328  HIT %:     65.095  MISS %:     34.905   MPKI: 19.6866
L2C LOAD      TOTAL       ACCESS:    4190982  HIT:    4061162  MISS:     129820  HIT %:    96.9024  MISS %:     3.0976   MPKI: 0.6491
L2C LOAD      NON_SPEC    ACCESS:      44784  HIT:      43901  MISS:        883  HIT %:    98.0283  MISS %:    1.97169   MPKI: 0.004415
L2C LOAD      SPEC        ACCESS:    4146198  HIT:    4017261  MISS:     128937  HIT %:    96.8902  MISS %:    3.10976   MPKI: 0.644685
L2C RFO       NON_SPEC    ACCESS:      97449  HIT:          0  MISS:      97449  HIT %:          0  MISS %:        100   MPKI: 0.487245
L2C PREFETCH  NON_SPEC    ACCESS:    5042207  HIT:    1467679  MISS:    3574528  HIT %:    29.1079  MISS %:    70.8921   MPKI: 17.8726
L2C WRITEBACK NON_SPEC    ACCESS:      97511  HIT:      97511  MISS:          0  HIT %:        100  MISS %:          0   MPKI: 0
L2C CLEAN_EVICTION NON_SPEC    ACCESS:     153647  HIT:      51697  MISS:     101950  HIT %:    33.6466  MISS %:    66.3534   MPKI: 0.50975
L2C COMMIT LOAD NON_SPEC    ACCESS:    1401529  HIT:    1375385  MISS:      26144  HIT %:    98.1346  MISS %:    1.86539   MPKI: 0.13072
L2C LOAD TRANSLATION NON_SPEC    ACCESS:     296804  HIT:     289367  MISS:       7437  HIT %:    97.4943  MISS %:    2.50569   MPKI: 0.037185
L2C PREFETCH  REQUESTED:    5207013  ISSUED:    5206986  USEFUL:    3573539  USELESS:        994
L2C USEFUL LOAD PREFETCHES:    3573539 PREFETCH ISSUED TO LOWER LEVEL:    3591553  ACCURACY: 99.4984
L2C TIMELY PREFETCHES:    3573539 LATE PREFETCHES: 16950 DROPPED PREFETCHES: 0
L2C COMMIT LATE PREFETCHES: 0 MISSED OPPORTUNITY: 0 LATE IN PQ: 0 UNCOVERED: 0
L2C COMMIT LATE MSHR PREFETCHES: 0
L2C MPKI TOTAL: 0.6491 MSHR LATE: 0.08475 PQ LATE: 0 COMMIT LATE: 0 MISSED OPPORTUNITY: 0 UNCOVERED: 0
L2C PREFETCHES SAME FILL-ORIGIN LEVEL: 3591478 DIFFERENT FILL-ORIGIN LEVEL: 75
L2C AVERAGE MISS LATENCY: 252.783 cycles
L2C AVERAGE MISS LATENCY LOAD: 159.502 cycles
L2C AVERAGE MISS LATENCY PREFETCH: 265.122 cycles
L2C AVERAGE MSHR OCCUPANCY: 8.29223
L2C MSHR FULL: 0.00529636
L2C RQ	ACCESS:    5986765	FORWARD:          0	MERGED:          0	TO_CACHE:    5986764
L2C WQ	ACCESS:     251158	FORWARD:          1	MERGED:          0	TO_CACHE:     251158
L2C PQ	ACCESS:    5206986	FORWARD:          0	MERGED:       4654	TO_CACHE:    5202332

L2C Instructions Evicting Data 0
L2C Translations Evicting Data 7432
L2C Data Evicting Data 3691775
L2C Instructions Evicting Instructions 0
L2C Translations Evicting Instructions 0
L2C Data Evicting Instructions 0
L2C Instructions Evicting Translations 0
L2C Translations Evicting Translations 5
L2C Data Evicting Translations 7229
L2C Dense regions hint from L2: 0
PSCL5 SPEC fills:          0  NON-SPEC fills:          0
PSCL5 Test counter :          0
PSCL5 Leapfrog:          0
PSCL5 MSHR merge:          0
PSCL5 TOTAL     ACCESS:          0  HIT:          0  MISS:          0  HIT %:       -nan  MISS %:       -nan   MPKI: 0
PSCL5 PREFETCH  REQUESTED:          0  ISSUED:          0  USEFUL:          0  USELESS:          0
PSCL5 USEFUL LOAD PREFETCHES:          0 PREFETCH ISSUED TO LOWER LEVEL:          0  ACCURACY: -nan
PSCL5 TIMELY PREFETCHES:          0 LATE PREFETCHES: 0 DROPPED PREFETCHES: 0
PSCL5 COMMIT LATE PREFETCHES: 0 MISSED OPPORTUNITY: 0 LATE IN PQ: 0 UNCOVERED: 0
PSCL5 COMMIT LATE MSHR PREFETCHES: 0
PSCL5 MPKI TOTAL: 0 MSHR LATE: 0 PQ LATE: 0 COMMIT LATE: 0 MISSED OPPORTUNITY: 0 UNCOVERED: 0
PSCL5 PREFETCHES SAME FILL-ORIGIN LEVEL: 0 DIFFERENT FILL-ORIGIN LEVEL: 0

PSCL4 SPEC fills:          0  NON-SPEC fills:          0
PSCL4 Test counter :          0
PSCL4 Leapfrog:          0
PSCL4 MSHR merge:          0
PSCL4 TOTAL     ACCESS:          0  HIT:          0  MISS:          0  HIT %:       -nan  MISS %:       -nan   MPKI: 0
PSCL4 PREFETCH  REQUESTED:          0  ISSUED:          0  USEFUL:          0  USELESS:          0
PSCL4 USEFUL LOAD PREFETCHES:          0 PREFETCH ISSUED TO LOWER LEVEL:          0  ACCURACY: -nan
PSCL4 TIMELY PREFETCHES:          0 LATE PREFETCHES: 0 DROPPED PREFETCHES: 0
PSCL4 COMMIT LATE PREFETCHES: 0 MISSED OPPORTUNITY: 0 LATE IN PQ: 0 UNCOVERED: 0
PSCL4 COMMIT LATE MSHR PREFETCHES: 0
PSCL4 MPKI TOTAL: 0 MSHR LATE: 0 PQ LATE: 0 COMMIT LATE: 0 MISSED OPPORTUNITY: 0 UNCOVERED: 0
PSCL4 PREFETCHES SAME FILL-ORIGIN LEVEL: 0 DIFFERENT FILL-ORIGIN LEVEL: 0

PSCL3 SPEC fills:          0  NON-SPEC fills:          0
PSCL3 Test counter :          0
PSCL3 Leapfrog:          0
PSCL3 MSHR merge:          0
PSCL3 TOTAL     ACCESS:          0  HIT:          0  MISS:          0  HIT %:       -nan  MISS %:       -nan   MPKI: 0
PSCL3 PREFETCH  REQUESTED:          0  ISSUED:          0  USEFUL:          0  USELESS:          0
PSCL3 USEFUL LOAD PREFETCHES:          0 PREFETCH ISSUED TO LOWER LEVEL:          0  ACCURACY: -nan
PSCL3 TIMELY PREFETCHES:          0 LATE PREFETCHES: 0 DROPPED PREFETCHES: 0
PSCL3 COMMIT LATE PREFETCHES: 0 MISSED OPPORTUNITY: 0 LATE IN PQ: 0 UNCOVERED: 0
PSCL3 COMMIT LATE MSHR PREFETCHES: 0
PSCL3 MPKI TOTAL: 0 MSHR LATE: 0 PQ LATE: 0 COMMIT LATE: 0 MISSED OPPORTUNITY: 0 UNCOVERED: 0
PSCL3 PREFETCHES SAME FILL-ORIGIN LEVEL: 0 DIFFERENT FILL-ORIGIN LEVEL: 0

PSCL2 SPEC fills:          0  NON-SPEC fills:          0
PSCL2 Test counter :          0
PSCL2 Leapfrog:          0
PSCL2 MSHR merge:          0
PSCL2 TOTAL     ACCESS:          0  HIT:          0  MISS:          0  HIT %:       -nan  MISS %:       -nan   MPKI: 0
PSCL2 PREFETCH  REQUESTED:          0  ISSUED:          0  USEFUL:          0  USELESS:          0
PSCL2 USEFUL LOAD PREFETCHES:          0 PREFETCH ISSUED TO LOWER LEVEL:          0  ACCURACY: -nan
PSCL2 TIMELY PREFETCHES:          0 LATE PREFETCHES: 0 DROPPED PREFETCHES: 0
PSCL2 COMMIT LATE PREFETCHES: 0 MISSED OPPORTUNITY: 0 LATE IN PQ: 0 UNCOVERED: 0
PSCL2 COMMIT LATE MSHR PREFETCHES: 0
PSCL2 MPKI TOTAL: 0 MSHR LATE: 0 PQ LATE: 0 COMMIT LATE: 0 MISSED OPPORTUNITY: 0 UNCOVERED: 0
PSCL2 PREFETCHES SAME FILL-ORIGIN LEVEL: 0 DIFFERENT FILL-ORIGIN LEVEL: 0

LLC SPEC fills:          0  NON-SPEC fills:        788
LLC Test counter :          0
LLC Leapfrog:          0
LLC MSHR merge:          0
LLC TOTAL     ACCESS:    4084779  HIT:     164611  MISS:    3920168  HIT %:    4.02986  MISS %:    95.9701   MPKI: 19.6008
LLC LOAD      TOTAL       ACCESS:     112871  HIT:         35  MISS:     112836  HIT %:  0.0310089  MISS %:     99.969   MPKI: 0.56418
LLC LOAD      NON_SPEC    ACCESS:        789  HIT:          1  MISS:        788  HIT %:   0.126743  MISS %:    99.8733   MPKI: 0.00394
LLC LOAD      SPEC        ACCESS:     112082  HIT:         34  MISS:     112048  HIT %:  0.0303349  MISS %:    99.9697   MPKI: 0.56024
LLC RFO       NON_SPEC    ACCESS:      97449  HIT:          0  MISS:      97449  HIT %:          0  MISS %:        100   MPKI: 0.487245
LLC PREFETCH  NON_SPEC    ACCESS:    3591553  HIT:        401  MISS:    3591152  HIT %:  0.0111651  MISS %:    99.9888   MPKI: 17.9558
LLC WRITEBACK NON_SPEC    ACCESS:      97445  HIT:      97445  MISS:          0  HIT %:        100  MISS %:          0   MPKI: 0
LLC CLEAN_EVICTION NON_SPEC    ACCESS:     151881  HIT:      63469  MISS:      88412  HIT %:    41.7886  MISS %:    58.2114   MPKI: 0.44206
LLC COMMIT LOAD NON_SPEC    ACCESS:      26143  HIT:       3261  MISS:      22882  HIT %:    12.4737  MISS %:    87.5263   MPKI: 0.11441
LLC LOAD TRANSLATION NON_SPEC    ACCESS:       7437  HIT:          0  MISS:       7437  HIT %:          0  MISS %:        100   MPKI: 0.037185
LLC PREFETCH  REQUESTED:          0  ISSUED:          0  USEFUL:       3270  USELESS:    3587900
LLC USEFUL LOAD PREFETCHES:       3270 PREFETCH ISSUED TO LOWER LEVEL:    3591152  ACCURACY: 0.0910571
LLC TIMELY PREFETCHES:       3270 LATE PREFETCHES: 0 DROPPED PREFETCHES: 0
LLC COMMIT LATE PREFETCHES: 0 MISSED OPPORTUNITY: 0 LATE IN PQ: 0 UNCOVERED: 0
LLC COMMIT LATE MSHR PREFETCHES: 0
LLC MPKI TOTAL: 0.56418 MSHR LATE: 0 PQ LATE: 0 COMMIT LATE: 0 MISSED OPPORTUNITY: 0 UNCOVERED: 0
LLC PREFETCHES SAME FILL-ORIGIN LEVEL: 14 DIFFERENT FILL-ORIGIN LEVEL: 0
LLC AVERAGE MISS LATENCY: 223.002 cycles
LLC AVERAGE MISS LATENCY LOAD: 113.19 cycles
LLC AVERAGE MISS LATENCY PREFETCH: 233.491 cycles
LLC AVERAGE MSHR OCCUPANCY: 3.61393
LLC MSHR FULL: 0
LLC RQ	ACCESS:     243900	FORWARD:          0	MERGED:          0	TO_CACHE:     243900
LLC WQ	ACCESS:     249326	FORWARD:          0	MERGED:          0	TO_CACHE:     249326
LLC PQ	ACCESS:    3591553	FORWARD:          0	MERGED:          0	TO_CACHE:    3591553

LLC Dense regions hint to LLC: 0

RAW hits: 522835
Loads Generated: 85960189
Loads sent to L1D: 85437351
Stores Generated: 11266814
Stores sent to L1D: 11266825
Major fault: 0 Minor fault: 70877
Allocated PAGES: 70877
Total Load insts: 106148255
Total Non-spec loads: 6464787
Percentage of speculative loads: 93.9097

LeapFrogging counter: 576037
Commit hits: 47400263 miss: 31972644
Commit hit %: 59.7184 miss %: 40.2816
Commits not translated: 0
Loads retired: 4190983
Stores retired: 11266825
Cache fills: 4190983
L1D response latency: 16.0996 cycles
Load retirement latency: 68.6605 cycles
OOO test counter: 0
Discarded buffer inserts: 47400263 hits: 33862 hit %: 0.0714384
Filter prediction accuracy: 99.9566
------------------
Depth Distribution
------------------
depth 0: 429400
depth 1: 2866
depth 2: 3109
depth 3: 3663
depth 4: 4526
depth 5: 8156
depth 6: 16934
depth 7: 1604885
depth 8: 2936899
depth 9: 236545
depth 10: 2175
depth 11: 1501
depth 12: 5
depth 13: 0
depth 14: 0
depth 15: 0
depth 16: 0
depth 17: 0
depth 18: 0
depth 19: 0
depth 20: 0
depth 21: 0
depth 22: 0
depth 23: 0
depth 24: 0
depth 25: 0
depth 26: 0
depth 27: 0
depth 28: 0
depth 29: 0
Total: 5250664
------------------
ST read accesses: 4133185
ST write accesses: 57797
PT read accesses: 168383361
PT write accesses: 5764888
FILTER read accesses: 33795621
FILTER write accesses: 16390908
GHR read accesses: 11667966
GHR write accesses: 2170602
PERC read accesses: 1217797443
PERC write accesses: 39558716
GHR counter read accesses: 8381964
GHR counter write accesses: 13246512
GHR ip read accesses: 28201086
GHR ip write accesses: 16763928
ST tag read accesses: 1642865633
ST tag write accesses: 48073106

DRAM Statistics
 CHANNEL 0
 RQ ROW_BUFFER_HIT:    2764576  ROW_BUFFER_MISS:    1067180
 DBUS_CONGESTED:       2639
 WQ ROW_BUFFER_HIT:      27717  ROW_BUFFER_MISS:     221465  FULL:          0

 AVG_CONGESTED_CYCLE: 3
 All warmup complete: 2
Channel 0 Bank busy for read cycles: 0
Channel 0 Bank busy for write cycles: 0
Channel 0
Rank 0
0banks busy for read cycles: 63767253
0banks busy for write cycles: 93484
1banks busy for read cycles: 29877658
1banks busy for write cycles: 10614762
2banks busy for read cycles: 25606244
2banks busy for write cycles: 5568485
3banks busy for read cycles: 26224193
3banks busy for write cycles: 3121607
4banks busy for read cycles: 14524475
4banks busy for write cycles: 1232019
5banks busy for read cycles: 7363780
5banks busy for write cycles: 475653
6banks busy for read cycles: 3973066
6banks busy for write cycles: 238644
7banks busy for read cycles: 1494390
7banks busy for write cycles: 135008
8banks busy for read cycles: 1169853
8banks busy for write cycles: 120340

CPU 0 Branch Prediction Accuracy: 99.9706% MPKI: 0.00733 Average ROB Occupancy at Mispredict: 32.7565
Branch types
NOT_BRANCH: 195007387 97.5037%
BRANCH_DIRECT_JUMP: 0 0%
BRANCH_INDIRECT: 0 0%
BRANCH_CONDITIONAL: 4992273 2.49614%
BRANCH_DIRECT_CALL: 0 0%
BRANCH_INDIRECT_CALL: 0 0%
BRANCH_RETURN: 0 0%
BRANCH_OTHER: 0 0%

DRAM PAGES: 1048576
Allocated PAGES: 70877
