Initialize SIGNATURE TABLE
ST_SET: 1
ST_WAY: 256
ST_TAG_BIT: 16
ST_TAG_MASK: ffff

Initialize PATTERN TABLE
PT_SET: 512
PT_WAY: 4
SIG_DELTA_BIT: 7
C_SIG_BIT: 4
C_DELTA_BIT: 4

Initialize PREFETCH FILTER
FILTER_SET: 1024

Initialize PERCEPTRON
PERC_ENTRIES: 4096
PERC_FEATURES: 9

*** ChampSim Multicore Out-of-Order Simulator ***

Warmup Instructions: 50000000
Simulation Instructions: 200000000
Number of CPUs: 1
LLC sets: 2048
LLC ways: 16
L0D sets: 16
L0D ways: 2
ROB size: 352
LQ size: 128
SQ size: 72
Secure Berti: OFF
Berti: OFF
Berti Fill: OFF
On commit prefetching: OFF
Hit-based filter: ON
Time-guarding: ON
Free-slotting: ON
Leap-frogging: ON
Train prefetcher on L0D bypass: OFF
No translation penalty for prefetchers: OFF
Prefetch to L0D only: OFF
Prefetch to L1D only: OFF
Clean evictions: ON
Commit loads: ON
Commit write: ON
Fill commit loads to L2C, LLC: ON
DRAM IO FREQUENCY: 6400
ROB SIZE: 352
Off-chip DRAM Size: 4096 MB Channels: 1 Width: 64-bit Data Rate: 6400 MT/s
CPU 0 runs /home/sumon/secure_berti/GhostMinion/../../traces/spec/603.bwaves_s-891B.champsimtrace.xz
.xz
BTB has LRU replacement policy
ITLB has LRU replacement policy
DTLB has LRU replacement policy
STLB has LRU replacement policy
L1I has LRU replacement policy
L0D has LRU replacement policy
L1D has LRU replacement policy
PERC_ENTRIES: 4096
L2C has LRU replacement policy
LLC has LRU replacement policy
Heartbeat CPU 0 instructions: 10000003 cycles: 2782250 heartbeat IPC: 3.59421 cumulative IPC: 3.59421 (Simulation time: 0 hr 0 min 26 sec) 
Heartbeat CPU 0 instructions: 20000003 cycles: 5564510 heartbeat IPC: 3.5942 cumulative IPC: 3.59421 (Simulation time: 0 hr 0 min 53 sec) 
Heartbeat CPU 0 instructions: 30000003 cycles: 8347034 heartbeat IPC: 3.59386 cumulative IPC: 3.59409 (Simulation time: 0 hr 1 min 19 sec) 
Heartbeat CPU 0 instructions: 40000000 cycles: 11129223 heartbeat IPC: 3.59429 cumulative IPC: 3.59414 (Simulation time: 0 hr 1 min 46 sec) 
Heartbeat CPU 0 instructions: 50000002 cycles: 14065571 heartbeat IPC: 3.40559 cumulative IPC: 3.55478 (Simulation time: 0 hr 2 min 6 sec) 

Warmup complete CPU 0 instructions: 50000002 cycles: 14065571 (Simulation time: 0 hr 2 min 6 sec) 

Heartbeat CPU 0 instructions: 60000002 cycles: 27825945 heartbeat IPC: 0.726724 cumulative IPC: 0.726724 (Simulation time: 0 hr 2 min 33 sec) 
Heartbeat CPU 0 instructions: 70000001 cycles: 41587676 heartbeat IPC: 0.726653 cumulative IPC: 0.726689 (Simulation time: 0 hr 3 min 0 sec) 
Heartbeat CPU 0 instructions: 80000002 cycles: 55349680 heartbeat IPC: 0.726638 cumulative IPC: 0.726672 (Simulation time: 0 hr 3 min 26 sec) 
Heartbeat CPU 0 instructions: 90000001 cycles: 69110786 heartbeat IPC: 0.726686 cumulative IPC: 0.726675 (Simulation time: 0 hr 3 min 53 sec) 
Heartbeat CPU 0 instructions: 100000000 cycles: 82872126 heartbeat IPC: 0.726673 cumulative IPC: 0.726675 (Simulation time: 0 hr 4 min 19 sec) 
Heartbeat CPU 0 instructions: 110000000 cycles: 96634644 heartbeat IPC: 0.726611 cumulative IPC: 0.726664 (Simulation time: 0 hr 4 min 46 sec) 
Heartbeat CPU 0 instructions: 120000001 cycles: 110396495 heartbeat IPC: 0.726646 cumulative IPC: 0.726662 (Simulation time: 0 hr 5 min 12 sec) 
Heartbeat CPU 0 instructions: 130000000 cycles: 124157340 heartbeat IPC: 0.726699 cumulative IPC: 0.726666 (Simulation time: 0 hr 5 min 38 sec) 
Heartbeat CPU 0 instructions: 140000001 cycles: 137920000 heartbeat IPC: 0.726604 cumulative IPC: 0.72666 (Simulation time: 0 hr 6 min 4 sec) 
Heartbeat CPU 0 instructions: 150000001 cycles: 151682093 heartbeat IPC: 0.726634 cumulative IPC: 0.726657 (Simulation time: 0 hr 6 min 30 sec) 
Heartbeat CPU 0 instructions: 160000000 cycles: 165443027 heartbeat IPC: 0.726695 cumulative IPC: 0.72666 (Simulation time: 0 hr 6 min 57 sec) 
Heartbeat CPU 0 instructions: 170000000 cycles: 179128124 heartbeat IPC: 0.730722 cumulative IPC: 0.726997 (Simulation time: 0 hr 7 min 24 sec) 
Heartbeat CPU 0 instructions: 180000001 cycles: 192658517 heartbeat IPC: 0.739077 cumulative IPC: 0.727912 (Simulation time: 0 hr 7 min 50 sec) 
Heartbeat CPU 0 instructions: 190000002 cycles: 205797168 heartbeat IPC: 0.761113 cumulative IPC: 0.730187 (Simulation time: 0 hr 8 min 19 sec) 
Heartbeat CPU 0 instructions: 200000002 cycles: 218474891 heartbeat IPC: 0.788785 cumulative IPC: 0.733822 (Simulation time: 0 hr 8 min 53 sec) 
Heartbeat CPU 0 instructions: 210000001 cycles: 231147086 heartbeat IPC: 0.789129 cumulative IPC: 0.73705 (Simulation time: 0 hr 9 min 26 sec) 
Heartbeat CPU 0 instructions: 220000000 cycles: 243820495 heartbeat IPC: 0.789054 cumulative IPC: 0.739919 (Simulation time: 0 hr 10 min 0 sec) 
Heartbeat CPU 0 instructions: 230000000 cycles: 256493554 heartbeat IPC: 0.789075 cumulative IPC: 0.742489 (Simulation time: 0 hr 10 min 34 sec) 
Heartbeat CPU 0 instructions: 240000002 cycles: 269167121 heartbeat IPC: 0.789044 cumulative IPC: 0.744801 (Simulation time: 0 hr 11 min 6 sec) 
Heartbeat CPU 0 instructions: 250000000 cycles: 281839665 heartbeat IPC: 0.789107 cumulative IPC: 0.746898 (Simulation time: 0 hr 11 min 39 sec) 
Finished CPU 0 instructions: 200000002 cycles: 267774095 cumulative IPC: 0.746898 (Simulation time: 0 hr 11 min 39 sec) 
 Instruction ID: 250000036

ChampSim completed all CPUs

Region of Interest Statistics

CPU 0 cumulative IPC: 0.746898 instructions: 200000002 cycles: 267774095
ITLB SPEC fills:          0  NON-SPEC fills:          0
ITLB Test counter :          0
ITLB Leapfrog:          0
ITLB MSHR merge:          0
ITLB TOTAL     ACCESS:   33489806  HIT:   33489805  MISS:          1  HIT %:        100  MISS %: 2.98598e-06   MPKI: 5e-06
ITLB LOAD TRANSLATION NON_SPEC    ACCESS:   33489806  HIT:   33489805  MISS:          1  HIT %:        100  MISS %: 2.98598e-06   MPKI: 5e-06
ITLB PREFETCH  REQUESTED:          0  ISSUED:          0  USEFUL:          0  USELESS:          0
ITLB USEFUL LOAD PREFETCHES:          0 PREFETCH ISSUED TO LOWER LEVEL:          0  ACCURACY: -nan
ITLB TIMELY PREFETCHES:          0 LATE PREFETCHES: 0 DROPPED PREFETCHES: 0
ITLB COMMIT LATE PREFETCHES: 0 MISSED OPPORTUNITY: 0 LATE IN PQ: 0 UNCOVERED: 0
ITLB COMMIT LATE MSHR PREFETCHES: 0
ITLB MPKI TOTAL: 0 MSHR LATE: 0 PQ LATE: 0 COMMIT LATE: 0 MISSED OPPORTUNITY: 0 UNCOVERED: 0
ITLB PREFETCHES SAME FILL-ORIGIN LEVEL: 0 DIFFERENT FILL-ORIGIN LEVEL: 0
ITLB AVERAGE MISS LATENCY: 964 cycles
ITLB AVERAGE MISS LATENCY LOAD: -nan cycles
ITLB AVERAGE MISS LATENCY PREFETCH: -nan cycles
ITLB AVERAGE MSHR OCCUPANCY: 2.98598e-08
ITLB MSHR FULL: 0
ITLB RQ	ACCESS:   34875583	FORWARD:          0	MERGED:    1385775	TO_CACHE:   33489808

DTLB SPEC fills:          0  NON-SPEC fills:          0
DTLB Test counter :          0
DTLB Leapfrog:          0
DTLB MSHR merge:          0
DTLB TOTAL     ACCESS:   31653902  HIT:   31593248  MISS:      60654  HIT %:    99.8084  MISS %:   0.191616   MPKI: 0.30327
DTLB LOAD TRANSLATION NON_SPEC    ACCESS:   31653902  HIT:   31593248  MISS:      60654  HIT %:    99.8084  MISS %:   0.191616   MPKI: 0.30327
DTLB PREFETCH  REQUESTED:          0  ISSUED:          0  USEFUL:          0  USELESS:          0
DTLB USEFUL LOAD PREFETCHES:          0 PREFETCH ISSUED TO LOWER LEVEL:          0  ACCURACY: -nan
DTLB TIMELY PREFETCHES:          0 LATE PREFETCHES: 0 DROPPED PREFETCHES: 0
DTLB COMMIT LATE PREFETCHES: 0 MISSED OPPORTUNITY: 0 LATE IN PQ: 0 UNCOVERED: 0
DTLB COMMIT LATE MSHR PREFETCHES: 0
DTLB MPKI TOTAL: 0 MSHR LATE: 0 PQ LATE: 0 COMMIT LATE: 0 MISSED OPPORTUNITY: 0 UNCOVERED: 0
DTLB PREFETCHES SAME FILL-ORIGIN LEVEL: 0 DIFFERENT FILL-ORIGIN LEVEL: 0
DTLB AVERAGE MISS LATENCY: 160.256 cycles
DTLB AVERAGE MISS LATENCY LOAD: -nan cycles
DTLB AVERAGE MISS LATENCY PREFETCH: -nan cycles
DTLB AVERAGE MSHR OCCUPANCY: 0.00292082
DTLB MSHR FULL: 0
DTLB RQ	ACCESS:   32283944	FORWARD:          0	MERGED:     610696	TO_CACHE:   31673248

STLB SPEC fills:          0  NON-SPEC fills:          0
STLB Test counter :          0
STLB Leapfrog:          0
STLB MSHR merge:          0
STLB TOTAL     ACCESS:      60655  HIT:        337  MISS:      60318  HIT %:   0.555601  MISS %:    99.4444   MPKI: 0.30159
STLB LOAD TRANSLATION NON_SPEC    ACCESS:      60655  HIT:        337  MISS:      60318  HIT %:   0.555601  MISS %:    99.4444   MPKI: 0.30159
STLB PREFETCH  REQUESTED:          0  ISSUED:          0  USEFUL:          0  USELESS:          0
STLB USEFUL LOAD PREFETCHES:          0 PREFETCH ISSUED TO LOWER LEVEL:          0  ACCURACY: -nan
STLB TIMELY PREFETCHES:          0 LATE PREFETCHES: 0 DROPPED PREFETCHES: 0
STLB COMMIT LATE PREFETCHES: 0 MISSED OPPORTUNITY: 0 LATE IN PQ: 0 UNCOVERED: 0
STLB COMMIT LATE MSHR PREFETCHES: 0
STLB MPKI TOTAL: 0 MSHR LATE: 0 PQ LATE: 0 COMMIT LATE: 0 MISSED OPPORTUNITY: 0 UNCOVERED: 0
STLB PREFETCHES SAME FILL-ORIGIN LEVEL: 0 DIFFERENT FILL-ORIGIN LEVEL: 0
STLB AVERAGE MISS LATENCY: 152.115 cycles
STLB AVERAGE MISS LATENCY LOAD: -nan cycles
STLB AVERAGE MISS LATENCY PREFETCH: -nan cycles
STLB AVERAGE MSHR OCCUPANCY: 3.29734e-05
STLB MSHR FULL: 0
STLB RQ	ACCESS:      60655	FORWARD:          0	MERGED:          0	TO_CACHE:      60655

STLB Hit, L1D data hit: 0
STLB Hit, L2C data hit: 0
STLB Hit, LLC data hit: 0
STLB Hit, LLC data miss: 0
STLB STLB hints to L2: 0
L0D SPEC fills:    9996308  NON-SPEC fills:          0
L0D TimeGuard Request with older TS:      52842 Restricted eviction:       1007 read:          4
L0D Test counter :          0
L0D Leapfrog:          0
L0D MSHR merge:    5830447
L0D TOTAL     ACCESS:   23077674  HIT:    1725744  MISS:   21351930  HIT %:    7.47798  MISS %:     92.522   MPKI: 106.76
L0D LOAD      TOTAL       ACCESS:   23077674  HIT:    1725744  MISS:   21351930  HIT %:    7.47798  MISS %:     92.522   MPKI: 106.76
L0D LOAD      NON_SPEC    ACCESS:   11379800  HIT:      25182  MISS:   11354618  HIT %:   0.221287  MISS %:    99.7787   MPKI: 56.7731
L0D LOAD      SPEC        ACCESS:   11697874  HIT:    1700562  MISS:    9997312  HIT %:    14.5374  MISS %:    85.4626   MPKI: 49.9866
L0D PREFETCH  REQUESTED:          0  ISSUED:          0  USEFUL:          0  USELESS:          0
L0D USEFUL LOAD PREFETCHES:          0 PREFETCH ISSUED TO LOWER LEVEL:          0  ACCURACY: -nan
L0D TIMELY PREFETCHES:          0 LATE PREFETCHES: 0 DROPPED PREFETCHES: 0
L0D COMMIT LATE PREFETCHES: 0 MISSED OPPORTUNITY: 0 LATE IN PQ: 0 UNCOVERED: 0
L0D COMMIT LATE MSHR PREFETCHES: 0
L0D MPKI TOTAL: 135.912 MSHR LATE: 0 PQ LATE: 0 COMMIT LATE: 0 MISSED OPPORTUNITY: 0 UNCOVERED: 0
L0D PREFETCHES SAME FILL-ORIGIN LEVEL: 0 DIFFERENT FILL-ORIGIN LEVEL: 0
L0D AVERAGE MISS LATENCY: 8.82989 cycles
L0D AVERAGE MISS LATENCY LOAD: 8.82989 cycles
L0D AVERAGE MISS LATENCY PREFETCH: -nan cycles
L0D AVERAGE MSHR OCCUPANCY: 0.479564
L0D MSHR FULL: 0
L0D RQ	ACCESS:   35804804	FORWARD:          0	MERGED:    6896682	TO_CACHE:   28908122
L0D WQ	ACCESS:    3375822	FORWARD:          0	MERGED:          0	TO_CACHE:    3375822

L1D SPEC fills:          0  NON-SPEC fills:    2402402
L1D Test counter :          0
L1D Leapfrog:          0
L1D MSHR merge:         72
L1D TOTAL     ACCESS:   31218959  HIT:   25401870  MISS:    5817089  HIT %:    81.3668  MISS %:    18.6332   MPKI: 29.0854
L1D LOAD      TOTAL       ACCESS:   21351858  HIT:   17003195  MISS:    4348663  HIT %:    79.6333  MISS %:    20.3667   MPKI: 21.7433
L1D LOAD      NON_SPEC    ACCESS:   11354552  HIT:    8952150  MISS:    2402402  HIT %:    78.8419  MISS %:    21.1581   MPKI: 12.012
L1D LOAD      SPEC        ACCESS:    9997306  HIT:    8051045  MISS:    1946261  HIT %:    80.5321  MISS %:    19.4679   MPKI: 9.7313
L1D RFO       NON_SPEC    ACCESS:    3375823  HIT:    3375821  MISS:          2  HIT %:    99.9999  MISS %: 5.92448e-05   MPKI: 1e-05
L1D COMMIT LOAD NON_SPEC    ACCESS:    3886899  HIT:    3886581  MISS:        318  HIT %:    99.9918  MISS %: 0.00818133   MPKI: 0.00159
L1D COMMIT WRITE NON_SPEC    ACCESS:    2604379  HIT:    1136273  MISS:    1468106  HIT %:    43.6293  MISS %:    56.3707   MPKI: 7.34053
L1D PREFETCH  REQUESTED:          0  ISSUED:          0  USEFUL:          0  USELESS:          0
L1D USEFUL LOAD PREFETCHES:          0 PREFETCH ISSUED TO LOWER LEVEL:          0  ACCURACY: -nan
L1D TIMELY PREFETCHES:          0 LATE PREFETCHES: 0 DROPPED PREFETCHES: 0
L1D COMMIT LATE PREFETCHES: 0 MISSED OPPORTUNITY: 0 LATE IN PQ: 0 UNCOVERED: 0
L1D COMMIT LATE MSHR PREFETCHES: 0
L1D MPKI TOTAL: 21.7437 MSHR LATE: 0 PQ LATE: 0 COMMIT LATE: 0 MISSED OPPORTUNITY: 0 UNCOVERED: 0
L1D PREFETCHES SAME FILL-ORIGIN LEVEL: 0 DIFFERENT FILL-ORIGIN LEVEL: 0
L1D AVERAGE MISS LATENCY: 14.0273 cycles
L1D AVERAGE MISS LATENCY LOAD: 18.7627 cycles
L1D AVERAGE MISS LATENCY PREFETCH: -nan cycles
L1D AVERAGE MSHR OCCUPANCY: 0.0991276
L1D MSHR FULL: 0
L1D RQ	ACCESS:   28829513	FORWARD:          0	MERGED:    3590262	TO_CACHE:   25239251
L1D WQ	ACCESS:    5980202	FORWARD:          0	MERGED:          0	TO_CACHE:    5980202

L1D UNIQUE REGIONS ACCESSED: 0
L1D REGIONS CONFLICTS: 0
L1D Cross Page Prefetch Requests: 0
L1D Same Page Prefetch Requests: 0
L1D ROI Sum of L1D PQ occupancy: 0
L1D PREFETCHES PUSHED FROM L2C: 0
L1I SPEC fills:          0  NON-SPEC fills:          0
L1I Test counter :          0
L1I Leapfrog:          0
L1I MSHR merge:          1
L1I TOTAL     ACCESS:   34875581  HIT:   34875574  MISS:          7  HIT %:        100  MISS %: 2.00714e-05   MPKI: 3.5e-05
L1I LOAD      TOTAL       ACCESS:   34875581  HIT:   34875574  MISS:          7  HIT %:        100  MISS %: 2.00714e-05   MPKI: 3.5e-05
L1I LOAD      NON_SPEC    ACCESS:   34875581  HIT:   34875574  MISS:          7  HIT %:        100  MISS %: 2.00714e-05   MPKI: 3.5e-05
L1I PREFETCH  REQUESTED:          0  ISSUED:          0  USEFUL:          0  USELESS:          0
L1I USEFUL LOAD PREFETCHES:          0 PREFETCH ISSUED TO LOWER LEVEL:          0  ACCURACY: -nan
L1I TIMELY PREFETCHES:          0 LATE PREFETCHES: 0 DROPPED PREFETCHES: 0
L1I COMMIT LATE PREFETCHES: 0 MISSED OPPORTUNITY: 0 LATE IN PQ: 0 UNCOVERED: 0
L1I COMMIT LATE MSHR PREFETCHES: 0
L1I MPKI TOTAL: 4e-05 MSHR LATE: 0 PQ LATE: 0 COMMIT LATE: 0 MISSED OPPORTUNITY: 0 UNCOVERED: 0
L1I PREFETCHES SAME FILL-ORIGIN LEVEL: 0 DIFFERENT FILL-ORIGIN LEVEL: 0
L1I AVERAGE MISS LATENCY: 214.143 cycles
L1I AVERAGE MISS LATENCY LOAD: 214.143 cycles
L1I AVERAGE MISS LATENCY PREFETCH: -nan cycles
L1I AVERAGE MSHR OCCUPANCY: 1.43367e-07
L1I MSHR FULL: 0
L1I RQ	ACCESS:   43893034	FORWARD:          0	MERGED:    9017451	TO_CACHE:   34875583

BTB SPEC fills:          0  NON-SPEC fills:          0
BTB Test counter :          0
BTB Leapfrog:          0
BTB MSHR merge:          0
BTB TOTAL     ACCESS:   30088185  HIT:   30088174  MISS:         11  HIT %:        100  MISS %: 3.65592e-05   MPKI: 5.5e-05
BTB BRANCH_DIRECT_JUMP	ACCESS:    1387292  HIT:    1387290  MISS:          2
BTB BRANCH_INDIRECT	ACCESS:          0  HIT:          0  MISS:          0
BTB BRANCH_CONDITIONAL	ACCESS:   28700893  HIT:   28700884  MISS:          9
BTB BRANCH_DIRECT_CALL	ACCESS:          0  HIT:          0  MISS:          0
BTB BRANCH_INDIRECT_CALL	ACCESS:          0  HIT:          0  MISS:          0
BTB BRANCH_RETURN	ACCESS:          0  HIT:          0  MISS:          0
BTB BRANCH_OTHER ACCESS:          0  HIT:          0  MISS:          0

L2C SPEC fills:          0  NON-SPEC fills:      63066
L2C Test counter :          0
L2C Leapfrog:          0
L2C MSHR merge:      53295
L2C TOTAL     ACCESS:    9827735  HIT:    5847365  MISS:    3980370  HIT %:    59.4986  MISS %:    40.5014   MPKI: 19.9018
L2C LOAD      TOTAL       ACCESS:    4348670  HIT:    4174694  MISS:     173976  HIT %:    95.9993  MISS %:    4.00067   MPKI: 0.86988
L2C LOAD      NON_SPEC    ACCESS:    2402409  HIT:    2339336  MISS:      63073  HIT %:    97.3746  MISS %:    2.62541   MPKI: 0.315365
L2C LOAD      SPEC        ACCESS:    1946261  HIT:    1835358  MISS:     110903  HIT %:    94.3017  MISS %:    5.69826   MPKI: 0.554515
L2C RFO       NON_SPEC    ACCESS:          2  HIT:          0  MISS:          2  HIT %:          0  MISS %:        100   MPKI: 1e-05
L2C PREFETCH  NON_SPEC    ACCESS:    4217436  HIT:     523804  MISS:    3693632  HIT %:      12.42  MISS %:      87.58   MPKI: 18.4682
L2C WRITEBACK NON_SPEC    ACCESS:          3  HIT:          1  MISS:          2  HIT %:    33.3333  MISS %:    66.6667   MPKI: 1e-05
L2C CLEAN_EVICTION NON_SPEC    ACCESS:     959797  HIT:     854602  MISS:     105195  HIT %:    89.0399  MISS %:    10.9601   MPKI: 0.525975
L2C COMMIT LOAD NON_SPEC    ACCESS:        318  HIT:        318  MISS:          0  HIT %:        100  MISS %:          0   MPKI: 0
L2C LOAD TRANSLATION NON_SPEC    ACCESS:     301509  HIT:     293946  MISS:       7563  HIT %:    97.4916  MISS %:    2.50838   MPKI: 0.037815
L2C PREFETCH  REQUESTED:    4407265  ISSUED:    4407263  USEFUL:    3692873  USELESS:        756
L2C USEFUL LOAD PREFETCHES:    3692873 PREFETCH ISSUED TO LOWER LEVEL:    3746963  ACCURACY: 98.5564
L2C TIMELY PREFETCHES:    3692873 LATE PREFETCHES: 53295 DROPPED PREFETCHES: 0
L2C COMMIT LATE PREFETCHES: 0 MISSED OPPORTUNITY: 0 LATE IN PQ: 0 UNCOVERED: 0
L2C COMMIT LATE MSHR PREFETCHES: 0
L2C MPKI TOTAL: 0.86988 MSHR LATE: 0.266475 PQ LATE: 0 COMMIT LATE: 0 MISSED OPPORTUNITY: 0 UNCOVERED: 0
L2C PREFETCHES SAME FILL-ORIGIN LEVEL: 3746933 DIFFERENT FILL-ORIGIN LEVEL: 30
L2C AVERAGE MISS LATENCY: 183.729 cycles
L2C AVERAGE MISS LATENCY LOAD: 141.581 cycles
L2C AVERAGE MISS LATENCY PREFETCH: 190.916 cycles
L2C AVERAGE MSHR OCCUPANCY: 2.9017
L2C MSHR FULL: 0
L2C RQ	ACCESS:    4650499	FORWARD:          0	MERGED:          0	TO_CACHE:    4650499
L2C WQ	ACCESS:     959800	FORWARD:          0	MERGED:          0	TO_CACHE:     959800
L2C PQ	ACCESS:    4407263	FORWARD:          0	MERGED:       5123	TO_CACHE:    4402140

L2C Instructions Evicting Data 7
L2C Translations Evicting Data 7563
L2C Data Evicting Data 3749370
L2C Instructions Evicting Instructions 0
L2C Translations Evicting Instructions 0
L2C Data Evicting Instructions 7
L2C Instructions Evicting Translations 0
L2C Translations Evicting Translations 0
L2C Data Evicting Translations 7323
L2C Dense regions hint from L2: 0
PSCL5 SPEC fills:          0  NON-SPEC fills:          0
PSCL5 Test counter :          0
PSCL5 Leapfrog:          0
PSCL5 MSHR merge:          0
PSCL5 TOTAL     ACCESS:          0  HIT:          0  MISS:          0  HIT %:       -nan  MISS %:       -nan   MPKI: 0
PSCL5 PREFETCH  REQUESTED:          0  ISSUED:          0  USEFUL:          0  USELESS:          0
PSCL5 USEFUL LOAD PREFETCHES:          0 PREFETCH ISSUED TO LOWER LEVEL:          0  ACCURACY: -nan
PSCL5 TIMELY PREFETCHES:          0 LATE PREFETCHES: 0 DROPPED PREFETCHES: 0
PSCL5 COMMIT LATE PREFETCHES: 0 MISSED OPPORTUNITY: 0 LATE IN PQ: 0 UNCOVERED: 0
PSCL5 COMMIT LATE MSHR PREFETCHES: 0
PSCL5 MPKI TOTAL: 0 MSHR LATE: 0 PQ LATE: 0 COMMIT LATE: 0 MISSED OPPORTUNITY: 0 UNCOVERED: 0
PSCL5 PREFETCHES SAME FILL-ORIGIN LEVEL: 0 DIFFERENT FILL-ORIGIN LEVEL: 0

PSCL4 SPEC fills:          0  NON-SPEC fills:          0
PSCL4 Test counter :          0
PSCL4 Leapfrog:          0
PSCL4 MSHR merge:          0
PSCL4 TOTAL     ACCESS:          0  HIT:          0  MISS:          0  HIT %:       -nan  MISS %:       -nan   MPKI: 0
PSCL4 PREFETCH  REQUESTED:          0  ISSUED:          0  USEFUL:          0  USELESS:          0
PSCL4 USEFUL LOAD PREFETCHES:          0 PREFETCH ISSUED TO LOWER LEVEL:          0  ACCURACY: -nan
PSCL4 TIMELY PREFETCHES:          0 LATE PREFETCHES: 0 DROPPED PREFETCHES: 0
PSCL4 COMMIT LATE PREFETCHES: 0 MISSED OPPORTUNITY: 0 LATE IN PQ: 0 UNCOVERED: 0
PSCL4 COMMIT LATE MSHR PREFETCHES: 0
PSCL4 MPKI TOTAL: 0 MSHR LATE: 0 PQ LATE: 0 COMMIT LATE: 0 MISSED OPPORTUNITY: 0 UNCOVERED: 0
PSCL4 PREFETCHES SAME FILL-ORIGIN LEVEL: 0 DIFFERENT FILL-ORIGIN LEVEL: 0

PSCL3 SPEC fills:          0  NON-SPEC fills:          0
PSCL3 Test counter :          0
PSCL3 Leapfrog:          0
PSCL3 MSHR merge:          0
PSCL3 TOTAL     ACCESS:          0  HIT:          0  MISS:          0  HIT %:       -nan  MISS %:       -nan   MPKI: 0
PSCL3 PREFETCH  REQUESTED:          0  ISSUED:          0  USEFUL:          0  USELESS:          0
PSCL3 USEFUL LOAD PREFETCHES:          0 PREFETCH ISSUED TO LOWER LEVEL:          0  ACCURACY: -nan
PSCL3 TIMELY PREFETCHES:          0 LATE PREFETCHES: 0 DROPPED PREFETCHES: 0
PSCL3 COMMIT LATE PREFETCHES: 0 MISSED OPPORTUNITY: 0 LATE IN PQ: 0 UNCOVERED: 0
PSCL3 COMMIT LATE MSHR PREFETCHES: 0
PSCL3 MPKI TOTAL: 0 MSHR LATE: 0 PQ LATE: 0 COMMIT LATE: 0 MISSED OPPORTUNITY: 0 UNCOVERED: 0
PSCL3 PREFETCHES SAME FILL-ORIGIN LEVEL: 0 DIFFERENT FILL-ORIGIN LEVEL: 0

PSCL2 SPEC fills:          0  NON-SPEC fills:          0
PSCL2 Test counter :          0
PSCL2 Leapfrog:          0
PSCL2 MSHR merge:          0
PSCL2 TOTAL     ACCESS:          0  HIT:          0  MISS:          0  HIT %:       -nan  MISS %:       -nan   MPKI: 0
PSCL2 PREFETCH  REQUESTED:          0  ISSUED:          0  USEFUL:          0  USELESS:          0
PSCL2 USEFUL LOAD PREFETCHES:          0 PREFETCH ISSUED TO LOWER LEVEL:          0  ACCURACY: -nan
PSCL2 TIMELY PREFETCHES:          0 LATE PREFETCHES: 0 DROPPED PREFETCHES: 0
PSCL2 COMMIT LATE PREFETCHES: 0 MISSED OPPORTUNITY: 0 LATE IN PQ: 0 UNCOVERED: 0
PSCL2 COMMIT LATE MSHR PREFETCHES: 0
PSCL2 MPKI TOTAL: 0 MSHR LATE: 0 PQ LATE: 0 COMMIT LATE: 0 MISSED OPPORTUNITY: 0 UNCOVERED: 0
PSCL2 PREFETCHES SAME FILL-ORIGIN LEVEL: 0 DIFFERENT FILL-ORIGIN LEVEL: 0

LLC SPEC fills:          0  NON-SPEC fills:      58510
LLC Test counter :          0
LLC Leapfrog:          0
LLC MSHR merge:          0
LLC TOTAL     ACCESS:    4833439  HIT:     908314  MISS:    3925125  HIT %:    18.7923  MISS %:    81.2077   MPKI: 19.6256
LLC LOAD      TOTAL       ACCESS:     120681  HIT:       5277  MISS:     115404  HIT %:    4.37269  MISS %:    95.6273   MPKI: 0.57702
LLC LOAD      NON_SPEC    ACCESS:      58823  HIT:        306  MISS:      58517  HIT %:   0.520205  MISS %:    99.4798   MPKI: 0.292585
LLC LOAD      SPEC        ACCESS:      61858  HIT:       4971  MISS:      56887  HIT %:    8.03615  MISS %:    91.9639   MPKI: 0.284435
LLC RFO       NON_SPEC    ACCESS:          2  HIT:          0  MISS:          2  HIT %:          0  MISS %:        100   MPKI: 1e-05
LLC PREFETCH  NON_SPEC    ACCESS:    3746956  HIT:        463  MISS:    3746493  HIT %:  0.0123567  MISS %:    99.9876   MPKI: 18.7325
LLC WRITEBACK NON_SPEC    ACCESS:          3  HIT:          1  MISS:          2  HIT %:    33.3333  MISS %:    66.6667   MPKI: 1e-05
LLC CLEAN_EVICTION NON_SPEC    ACCESS:     958234  HIT:     902573  MISS:      55661  HIT %:    94.1913  MISS %:    5.80871   MPKI: 0.278305
LLC LOAD TRANSLATION NON_SPEC    ACCESS:       7563  HIT:          0  MISS:       7563  HIT %:          0  MISS %:        100   MPKI: 0.037815
LLC PREFETCH  REQUESTED:          0  ISSUED:          0  USEFUL:       4320  USELESS:    3742482
LLC USEFUL LOAD PREFETCHES:       4320 PREFETCH ISSUED TO LOWER LEVEL:    3746499  ACCURACY: 0.115308
LLC TIMELY PREFETCHES:       4320 LATE PREFETCHES: 0 DROPPED PREFETCHES: 0
LLC COMMIT LATE PREFETCHES: 0 MISSED OPPORTUNITY: 0 LATE IN PQ: 0 UNCOVERED: 0
LLC COMMIT LATE MSHR PREFETCHES: 0
LLC MPKI TOTAL: 0.57702 MSHR LATE: 0 PQ LATE: 0 COMMIT LATE: 0 MISSED OPPORTUNITY: 0 UNCOVERED: 0
LLC PREFETCHES SAME FILL-ORIGIN LEVEL: 14 DIFFERENT FILL-ORIGIN LEVEL: 0
LLC AVERAGE MISS LATENCY: 157.869 cycles
LLC AVERAGE MISS LATENCY LOAD: 133.126 cycles
LLC AVERAGE MISS LATENCY PREFETCH: 160.955 cycles
LLC AVERAGE MSHR OCCUPANCY: 0.813016
LLC MSHR FULL: 0
LLC RQ	ACCESS:     128246	FORWARD:          0	MERGED:          0	TO_CACHE:     128246
LLC WQ	ACCESS:     958237	FORWARD:          0	MERGED:          0	TO_CACHE:     958237
LLC PQ	ACCESS:    3746963	FORWARD:          0	MERGED:          0	TO_CACHE:    3746963

LLC Dense regions hint to LLC: 0

RAW hits: 1
Loads Generated: 35804805
Loads sent to L1D: 35804804
Stores Generated: 3375822
Stores sent to L1D: 3375822
Major fault: 0 Minor fault: 62153
Allocated PAGES: 62153
Total Load insts: 43892555
Total Non-spec loads: 11702108
Percentage of speculative loads: 73.3392

LeapFrogging counter: 0
Commit hits: 9994735 miss: 14430272
Commit hit %: 40.9201 miss %: 59.0799
Commits not translated: 0
Loads retired: 4348663
Stores retired: 3375822
Cache fills: 4348663
L1D response latency: 18.7627 cycles
Load retirement latency: 33.2787 cycles
OOO test counter: 0
Discarded buffer inserts: 9994735 hits: 480186 hit %: 4.80439
Filter prediction accuracy: 99.4814
------------------
Depth Distribution
------------------
depth 0: 979928
depth 1: 209
depth 2: 80
depth 3: 180
depth 4: 144
depth 5: 316
depth 6: 523
depth 7: 1092
depth 8: 40539
depth 9: 641419
depth 10: 236790
depth 11: 1188395
depth 12: 930797
depth 13: 164023
depth 14: 1343175
depth 15: 229588
depth 16: 191879
depth 17: 92996
depth 18: 63537
depth 19: 11456
depth 20: 1377
depth 21: 336
depth 22: 65
depth 23: 0
depth 24: 20
depth 25: 0
depth 26: 0
depth 27: 0
depth 28: 0
depth 29: 0
Total: 6118864
------------------
ST read accesses: 4288318
ST write accesses: 60345
PT read accesses: 270077520
PT write accesses: 5706421
FILTER read accesses: 52363848
FILTER write accesses: 15856393
GHR read accesses: 31190041
GHR write accesses: 5836267
PERC read accesses: 1946164185
PERC write accesses: 35249438
GHR counter read accesses: 8697326
GHR counter write accesses: 12540896
GHR ip read accesses: 26268666
GHR ip write accesses: 17394652
ST tag read accesses: 1703533646
ST tag write accesses: 21480934

DRAM Statistics
 CHANNEL 0
 RQ ROW_BUFFER_HIT:    1403116  ROW_BUFFER_MISS:    2466346
 DBUS_CONGESTED:       4958
 WQ ROW_BUFFER_HIT:     344435  ROW_BUFFER_MISS:     606895  FULL:          0

 AVG_CONGESTED_CYCLE: 4
 All warmup complete: 2
Channel 0 Bank busy for read cycles: 0
Channel 0 Bank busy for write cycles: 0
Channel 0
Rank 0
0banks busy for read cycles: 52686744
0banks busy for write cycles: 98091
1banks busy for read cycles: 52202868
1banks busy for write cycles: 11287786
2banks busy for read cycles: 42226492
2banks busy for write cycles: 7763380
3banks busy for read cycles: 32443023
3banks busy for write cycles: 5887994
4banks busy for read cycles: 21814014
4banks busy for write cycles: 4880597
5banks busy for read cycles: 3994637
5banks busy for write cycles: 4229671
6banks busy for read cycles: 2554899
6banks busy for write cycles: 3795068
7banks busy for read cycles: 2543776
7banks busy for write cycles: 4128781
8banks busy for read cycles: 8242694
8banks busy for write cycles: 6993581

CPU 0 Branch Prediction Accuracy: 99.8669% MPKI: 0.223155 Average ROB Occupancy at Mispredict: 39.889
Branch types
NOT_BRANCH: 166478335 83.2392%
BRANCH_DIRECT_JUMP: 1387292 0.693646%
BRANCH_INDIRECT: 0 0%
BRANCH_CONDITIONAL: 32134343 16.0672%
BRANCH_DIRECT_CALL: 0 0%
BRANCH_INDIRECT_CALL: 0 0%
BRANCH_RETURN: 0 0%
BRANCH_OTHER: 0 0%

DRAM PAGES: 1048576
Allocated PAGES: 62153
