Initialize SIGNATURE TABLE
ST_SET: 1
ST_WAY: 256
ST_TAG_BIT: 16
ST_TAG_MASK: ffff

Initialize PATTERN TABLE
PT_SET: 512
PT_WAY: 4
SIG_DELTA_BIT: 7
C_SIG_BIT: 4
C_DELTA_BIT: 4

Initialize PREFETCH FILTER
FILTER_SET: 1024

Initialize PERCEPTRON
PERC_ENTRIES: 4096
PERC_FEATURES: 9

*** ChampSim Multicore Out-of-Order Simulator ***

Warmup Instructions: 50000000
Simulation Instructions: 200000000
Number of CPUs: 1
LLC sets: 2048
LLC ways: 16
L0D sets: 16
L0D ways: 2
ROB size: 352
LQ size: 128
SQ size: 72
Secure Berti: OFF
Berti: OFF
Berti Fill: OFF
On commit prefetching: OFF
Hit-based filter: ON
Time-guarding: ON
Free-slotting: ON
Leap-frogging: ON
Train prefetcher on L0D bypass: OFF
No translation penalty for prefetchers: OFF
Prefetch to L0D only: OFF
Prefetch to L1D only: OFF
Clean evictions: ON
Commit loads: ON
Commit write: ON
Fill commit loads to L2C, LLC: ON
DRAM IO FREQUENCY: 6400
ROB SIZE: 352
Off-chip DRAM Size: 4096 MB Channels: 1 Width: 64-bit Data Rate: 6400 MT/s
CPU 0 runs /home/sumon/secure_berti/GhostMinion/../../traces/spec/605.mcf_s-1536B.champsimtrace.xz
.xz
BTB has LRU replacement policy
ITLB has LRU replacement policy
DTLB has LRU replacement policy
STLB has LRU replacement policy
L1I has LRU replacement policy
L0D has LRU replacement policy
L1D has LRU replacement policy
PERC_ENTRIES: 4096
L2C has LRU replacement policy
LLC has LRU replacement policy
Heartbeat CPU 0 instructions: 10000003 cycles: 4493563 heartbeat IPC: 2.22541 cumulative IPC: 2.22541 (Simulation time: 0 hr 0 min 34 sec) 
Heartbeat CPU 0 instructions: 20000003 cycles: 8962715 heartbeat IPC: 2.23756 cumulative IPC: 2.23147 (Simulation time: 0 hr 1 min 9 sec) 
Heartbeat CPU 0 instructions: 30000001 cycles: 13477897 heartbeat IPC: 2.21475 cumulative IPC: 2.22587 (Simulation time: 0 hr 1 min 44 sec) 
Heartbeat CPU 0 instructions: 40000002 cycles: 18013451 heartbeat IPC: 2.2048 cumulative IPC: 2.22056 (Simulation time: 0 hr 2 min 20 sec) 
Heartbeat CPU 0 instructions: 50000003 cycles: 22603023 heartbeat IPC: 2.17885 cumulative IPC: 2.21209 (Simulation time: 0 hr 2 min 57 sec) 

Warmup complete CPU 0 instructions: 50000003 cycles: 22603023 (Simulation time: 0 hr 2 min 57 sec) 

Heartbeat CPU 0 instructions: 60000003 cycles: 76580247 heartbeat IPC: 0.185263 cumulative IPC: 0.185263 (Simulation time: 0 hr 4 min 8 sec) 
Heartbeat CPU 0 instructions: 70000003 cycles: 130503752 heartbeat IPC: 0.185448 cumulative IPC: 0.185356 (Simulation time: 0 hr 5 min 18 sec) 
Heartbeat CPU 0 instructions: 80000001 cycles: 183970530 heartbeat IPC: 0.187032 cumulative IPC: 0.185911 (Simulation time: 0 hr 6 min 29 sec) 
Heartbeat CPU 0 instructions: 90000000 cycles: 237496199 heartbeat IPC: 0.186826 cumulative IPC: 0.186139 (Simulation time: 0 hr 7 min 39 sec) 
Heartbeat CPU 0 instructions: 100000002 cycles: 291256334 heartbeat IPC: 0.186011 cumulative IPC: 0.186113 (Simulation time: 0 hr 8 min 50 sec) 
Heartbeat CPU 0 instructions: 110000000 cycles: 344988099 heartbeat IPC: 0.18611 cumulative IPC: 0.186113 (Simulation time: 0 hr 10 min 0 sec) 
Heartbeat CPU 0 instructions: 120000000 cycles: 397800039 heartbeat IPC: 0.189351 cumulative IPC: 0.186569 (Simulation time: 0 hr 11 min 10 sec) 
Heartbeat CPU 0 instructions: 130000003 cycles: 451307021 heartbeat IPC: 0.186892 cumulative IPC: 0.186609 (Simulation time: 0 hr 12 min 19 sec) 
Heartbeat CPU 0 instructions: 140000003 cycles: 504667785 heartbeat IPC: 0.187404 cumulative IPC: 0.186697 (Simulation time: 0 hr 13 min 26 sec) 
Heartbeat CPU 0 instructions: 150000001 cycles: 557520954 heartbeat IPC: 0.189203 cumulative IPC: 0.186945 (Simulation time: 0 hr 14 min 33 sec) 
Heartbeat CPU 0 instructions: 160000000 cycles: 609998757 heartbeat IPC: 0.190557 cumulative IPC: 0.187267 (Simulation time: 0 hr 15 min 38 sec) 
Heartbeat CPU 0 instructions: 170000002 cycles: 661807455 heartbeat IPC: 0.193018 cumulative IPC: 0.187733 (Simulation time: 0 hr 16 min 41 sec) 
Heartbeat CPU 0 instructions: 180000001 cycles: 713347780 heartbeat IPC: 0.194023 cumulative IPC: 0.188203 (Simulation time: 0 hr 17 min 43 sec) 
Heartbeat CPU 0 instructions: 190000000 cycles: 764764523 heartbeat IPC: 0.194489 cumulative IPC: 0.188638 (Simulation time: 0 hr 18 min 46 sec) 
Heartbeat CPU 0 instructions: 200000003 cycles: 815903085 heartbeat IPC: 0.195547 cumulative IPC: 0.189084 (Simulation time: 0 hr 19 min 48 sec) 
Heartbeat CPU 0 instructions: 210000000 cycles: 866772237 heartbeat IPC: 0.196583 cumulative IPC: 0.189535 (Simulation time: 0 hr 20 min 50 sec) 
Heartbeat CPU 0 instructions: 220000000 cycles: 917530594 heartbeat IPC: 0.197012 cumulative IPC: 0.189959 (Simulation time: 0 hr 21 min 51 sec) 
Heartbeat CPU 0 instructions: 230000000 cycles: 968365931 heartbeat IPC: 0.196714 cumulative IPC: 0.190323 (Simulation time: 0 hr 22 min 52 sec) 
Heartbeat CPU 0 instructions: 240000002 cycles: 1019146687 heartbeat IPC: 0.196925 cumulative IPC: 0.190659 (Simulation time: 0 hr 23 min 52 sec) 
Heartbeat CPU 0 instructions: 250000001 cycles: 1070041351 heartbeat IPC: 0.196484 cumulative IPC: 0.190942 (Simulation time: 0 hr 24 min 52 sec) 
Finished CPU 0 instructions: 200000002 cycles: 1047438329 cumulative IPC: 0.190942 (Simulation time: 0 hr 24 min 52 sec) 
 Instruction ID: 250000381

ChampSim completed all CPUs

Region of Interest Statistics

CPU 0 cumulative IPC: 0.190942 instructions: 200000002 cycles: 1047438329
ITLB SPEC fills:          0  NON-SPEC fills:          0
ITLB Test counter :          0
ITLB Leapfrog:          0
ITLB MSHR merge:          0
ITLB TOTAL     ACCESS:   38048272  HIT:   38048272  MISS:          0  HIT %:        100  MISS %:          0   MPKI: 0
ITLB LOAD TRANSLATION NON_SPEC    ACCESS:   38048272  HIT:   38048272  MISS:          0  HIT %:        100  MISS %:          0   MPKI: 0
ITLB PREFETCH  REQUESTED:          0  ISSUED:          0  USEFUL:          0  USELESS:          0
ITLB USEFUL LOAD PREFETCHES:          0 PREFETCH ISSUED TO LOWER LEVEL:          0  ACCURACY: -nan
ITLB TIMELY PREFETCHES:          0 LATE PREFETCHES: 0 DROPPED PREFETCHES: 0
ITLB COMMIT LATE PREFETCHES: 0 MISSED OPPORTUNITY: 0 LATE IN PQ: 0 UNCOVERED: 0
ITLB COMMIT LATE MSHR PREFETCHES: 0
ITLB MPKI TOTAL: 0 MSHR LATE: 0 PQ LATE: 0 COMMIT LATE: 0 MISSED OPPORTUNITY: 0 UNCOVERED: 0
ITLB PREFETCHES SAME FILL-ORIGIN LEVEL: 0 DIFFERENT FILL-ORIGIN LEVEL: 0
ITLB AVERAGE MISS LATENCY: -nan cycles
ITLB AVERAGE MISS LATENCY LOAD: -nan cycles
ITLB AVERAGE MISS LATENCY PREFETCH: -nan cycles
ITLB AVERAGE MSHR OCCUPANCY: 0
ITLB MSHR FULL: 0
ITLB RQ	ACCESS:   39315125	FORWARD:          0	MERGED:    1266853	TO_CACHE:   38048272

DTLB SPEC fills:          0  NON-SPEC fills:          0
DTLB Test counter :          0
DTLB Leapfrog:          0
DTLB MSHR merge:          0
DTLB TOTAL     ACCESS:   33813640  HIT:   28939300  MISS:    4874340  HIT %:    85.5847  MISS %:    14.4153   MPKI: 24.3717
DTLB LOAD TRANSLATION NON_SPEC    ACCESS:   33813640  HIT:   28939300  MISS:    4874340  HIT %:    85.5847  MISS %:    14.4153   MPKI: 24.3717
DTLB PREFETCH  REQUESTED:          0  ISSUED:          0  USEFUL:          0  USELESS:          0
DTLB USEFUL LOAD PREFETCHES:          0 PREFETCH ISSUED TO LOWER LEVEL:          0  ACCURACY: -nan
DTLB TIMELY PREFETCHES:          0 LATE PREFETCHES: 0 DROPPED PREFETCHES: 0
DTLB COMMIT LATE PREFETCHES: 0 MISSED OPPORTUNITY: 0 LATE IN PQ: 0 UNCOVERED: 0
DTLB COMMIT LATE MSHR PREFETCHES: 0
DTLB MPKI TOTAL: 0 MSHR LATE: 0 PQ LATE: 0 COMMIT LATE: 0 MISSED OPPORTUNITY: 0 UNCOVERED: 0
DTLB PREFETCHES SAME FILL-ORIGIN LEVEL: 0 DIFFERENT FILL-ORIGIN LEVEL: 0
DTLB AVERAGE MISS LATENCY: 130.448 cycles
DTLB AVERAGE MISS LATENCY LOAD: -nan cycles
DTLB AVERAGE MISS LATENCY PREFETCH: -nan cycles
DTLB AVERAGE MSHR OCCUPANCY: 0.489081
DTLB MSHR FULL: 0
DTLB RQ	ACCESS:   38814828	FORWARD:          0	MERGED:    4956588	TO_CACHE:   33858240

STLB SPEC fills:          0  NON-SPEC fills:          0
STLB Test counter :          0
STLB Leapfrog:          0
STLB MSHR merge:          0
STLB TOTAL     ACCESS:    4874340  HIT:     229544  MISS:    4644796  HIT %:    4.70923  MISS %:    95.2908   MPKI: 23.224
STLB LOAD TRANSLATION NON_SPEC    ACCESS:    4874340  HIT:     229544  MISS:    4644796  HIT %:    4.70923  MISS %:    95.2908   MPKI: 23.224
STLB PREFETCH  REQUESTED:          0  ISSUED:          0  USEFUL:          0  USELESS:          0
STLB USEFUL LOAD PREFETCHES:          0 PREFETCH ISSUED TO LOWER LEVEL:          0  ACCURACY: -nan
STLB TIMELY PREFETCHES:          0 LATE PREFETCHES: 0 DROPPED PREFETCHES: 0
STLB COMMIT LATE PREFETCHES: 0 MISSED OPPORTUNITY: 0 LATE IN PQ: 0 UNCOVERED: 0
STLB COMMIT LATE MSHR PREFETCHES: 0
STLB MPKI TOTAL: 0 MSHR LATE: 0 PQ LATE: 0 COMMIT LATE: 0 MISSED OPPORTUNITY: 0 UNCOVERED: 0
STLB PREFETCHES SAME FILL-ORIGIN LEVEL: 0 DIFFERENT FILL-ORIGIN LEVEL: 0
STLB AVERAGE MISS LATENCY: 127.429 cycles
STLB AVERAGE MISS LATENCY LOAD: -nan cycles
STLB AVERAGE MISS LATENCY PREFETCH: -nan cycles
STLB AVERAGE MSHR OCCUPANCY: 0.480268
STLB MSHR FULL: 0
STLB RQ	ACCESS:    4874339	FORWARD:          0	MERGED:          0	TO_CACHE:    4874339

STLB Hit, L1D data hit: 0
STLB Hit, L2C data hit: 0
STLB Hit, LLC data hit: 0
STLB Hit, LLC data miss: 0
STLB STLB hints to L2: 0
L0D SPEC fills:   19652242  NON-SPEC fills:          0
L0D TimeGuard Request with older TS:     634868 Restricted eviction:       8687 read:    2481572
L0D Test counter :          0
L0D Leapfrog:          0
L0D MSHR merge:     914833
L0D TOTAL     ACCESS:   29031584  HIT:    1894597  MISS:   27136987  HIT %:    6.52599  MISS %:     93.474   MPKI: 135.685
L0D LOAD      TOTAL       ACCESS:   29031584  HIT:    1894597  MISS:   27136987  HIT %:    6.52599  MISS %:     93.474   MPKI: 135.685
L0D LOAD      NON_SPEC    ACCESS:    7824470  HIT:     348412  MISS:    7476058  HIT %:    4.45285  MISS %:    95.5471   MPKI: 37.3803
L0D LOAD      SPEC        ACCESS:   21207114  HIT:    1546185  MISS:   19660929  HIT %:    7.29088  MISS %:    92.7091   MPKI: 98.3046
L0D PREFETCH  REQUESTED:          0  ISSUED:          0  USEFUL:          0  USELESS:          0
L0D USEFUL LOAD PREFETCHES:          0 PREFETCH ISSUED TO LOWER LEVEL:          0  ACCURACY: -nan
L0D TIMELY PREFETCHES:          0 LATE PREFETCHES: 0 DROPPED PREFETCHES: 0
L0D COMMIT LATE PREFETCHES: 0 MISSED OPPORTUNITY: 0 LATE IN PQ: 0 UNCOVERED: 0
L0D COMMIT LATE MSHR PREFETCHES: 0
L0D MPKI TOTAL: 140.259 MSHR LATE: 0 PQ LATE: 0 COMMIT LATE: 0 MISSED OPPORTUNITY: 0 UNCOVERED: 0
L0D PREFETCHES SAME FILL-ORIGIN LEVEL: 0 DIFFERENT FILL-ORIGIN LEVEL: 0
L0D AVERAGE MISS LATENCY: 43.2559 cycles
L0D AVERAGE MISS LATENCY LOAD: 43.2559 cycles
L0D AVERAGE MISS LATENCY PREFETCH: -nan cycles
L0D AVERAGE MSHR OCCUPANCY: 0.877396
L0D MSHR FULL: 0
L0D RQ	ACCESS:   49154492	FORWARD:          0	MERGED:   19208078	TO_CACHE:   29946414
L0D WQ	ACCESS:    8868414	FORWARD:          0	MERGED:          0	TO_CACHE:    8868414

L1D SPEC fills:          0  NON-SPEC fills:    3566704
L1D Test counter :          0
L1D Leapfrog:          0
L1D MSHR merge:        730
L1D TOTAL     ACCESS:   50851390  HIT:   32762126  MISS:   18089264  HIT %:    64.4272  MISS %:    35.5728   MPKI: 90.4463
L1D LOAD      TOTAL       ACCESS:   27136257  HIT:   16581397  MISS:   10554860  HIT %:    61.1042  MISS %:    38.8958   MPKI: 52.7743
L1D LOAD      NON_SPEC    ACCESS:    7476022  HIT:    3909318  MISS:    3566704  HIT %:    52.2914  MISS %:    47.7086   MPKI: 17.8335
L1D LOAD      SPEC        ACCESS:   19660235  HIT:   12672079  MISS:    6988156  HIT %:    64.4554  MISS %:    35.5446   MPKI: 34.9408
L1D RFO       NON_SPEC    ACCESS:    8867615  HIT:    8313268  MISS:     554347  HIT %:    93.7486  MISS %:    6.25137   MPKI: 2.77173
L1D COMMIT LOAD NON_SPEC    ACCESS:    7860871  HIT:    7853953  MISS:       6918  HIT %:     99.912  MISS %:  0.0880055   MPKI: 0.03459
L1D COMMIT WRITE NON_SPEC    ACCESS:    6986647  HIT:      13508  MISS:    6973139  HIT %:    0.19334  MISS %:    99.8067   MPKI: 34.8657
L1D PREFETCH  REQUESTED:          0  ISSUED:          0  USEFUL:          0  USELESS:          0
L1D USEFUL LOAD PREFETCHES:          0 PREFETCH ISSUED TO LOWER LEVEL:          0  ACCURACY: -nan
L1D TIMELY PREFETCHES:          0 LATE PREFETCHES: 0 DROPPED PREFETCHES: 0
L1D COMMIT LATE PREFETCHES: 0 MISSED OPPORTUNITY: 0 LATE IN PQ: 0 UNCOVERED: 0
L1D COMMIT LATE MSHR PREFETCHES: 0
L1D MPKI TOTAL: 52.7779 MSHR LATE: 0 PQ LATE: 0 COMMIT LATE: 0 MISSED OPPORTUNITY: 0 UNCOVERED: 0
L1D PREFETCHES SAME FILL-ORIGIN LEVEL: 0 DIFFERENT FILL-ORIGIN LEVEL: 0
L1D AVERAGE MISS LATENCY: 57.9233 cycles
L1D AVERAGE MISS LATENCY LOAD: 98.0035 cycles
L1D AVERAGE MISS LATENCY PREFETCH: -nan cycles
L1D AVERAGE MSHR OCCUPANCY: 0.690068
L1D MSHR FULL: 0
L1D RQ	ACCESS:   37923585	FORWARD:          0	MERGED:    2925227	TO_CACHE:   34998358
L1D WQ	ACCESS:   15855060	FORWARD:          0	MERGED:          0	TO_CACHE:   15855060

L1D UNIQUE REGIONS ACCESSED: 0
L1D REGIONS CONFLICTS: 0
L1D Cross Page Prefetch Requests: 0
L1D Same Page Prefetch Requests: 0
L1D ROI Sum of L1D PQ occupancy: 0
L1D PREFETCHES PUSHED FROM L2C: 0
L1I SPEC fills:          0  NON-SPEC fills:          0
L1I Test counter :          0
L1I Leapfrog:          0
L1I MSHR merge:          0
L1I TOTAL     ACCESS:   39315123  HIT:   39315123  MISS:          0  HIT %:        100  MISS %:          0   MPKI: 0
L1I LOAD      TOTAL       ACCESS:   39315123  HIT:   39315123  MISS:          0  HIT %:        100  MISS %:          0   MPKI: 0
L1I LOAD      NON_SPEC    ACCESS:   39315123  HIT:   39315123  MISS:          0  HIT %:        100  MISS %:          0   MPKI: 0
L1I PREFETCH  REQUESTED:          0  ISSUED:          0  USEFUL:          0  USELESS:          0
L1I USEFUL LOAD PREFETCHES:          0 PREFETCH ISSUED TO LOWER LEVEL:          0  ACCURACY: -nan
L1I TIMELY PREFETCHES:          0 LATE PREFETCHES: 0 DROPPED PREFETCHES: 0
L1I COMMIT LATE PREFETCHES: 0 MISSED OPPORTUNITY: 0 LATE IN PQ: 0 UNCOVERED: 0
L1I COMMIT LATE MSHR PREFETCHES: 0
L1I MPKI TOTAL: 0 MSHR LATE: 0 PQ LATE: 0 COMMIT LATE: 0 MISSED OPPORTUNITY: 0 UNCOVERED: 0
L1I PREFETCHES SAME FILL-ORIGIN LEVEL: 0 DIFFERENT FILL-ORIGIN LEVEL: 0
L1I AVERAGE MISS LATENCY: -nan cycles
L1I AVERAGE MISS LATENCY LOAD: -nan cycles
L1I AVERAGE MISS LATENCY PREFETCH: -nan cycles
L1I AVERAGE MSHR OCCUPANCY: 0
L1I MSHR FULL: 0
L1I RQ	ACCESS:   60847653	FORWARD:          0	MERGED:   21532528	TO_CACHE:   39315125

BTB SPEC fills:          0  NON-SPEC fills:          0
BTB Test counter :          0
BTB Leapfrog:          0
BTB MSHR merge:          0
BTB TOTAL     ACCESS:   26649158  HIT:   26649150  MISS:          8  HIT %:        100  MISS %: 3.00197e-05   MPKI: 4e-05
BTB BRANCH_DIRECT_JUMP	ACCESS:    4549688  HIT:    4549686  MISS:          2
BTB BRANCH_INDIRECT	ACCESS:          0  HIT:          0  MISS:          0
BTB BRANCH_CONDITIONAL	ACCESS:   13231060  HIT:   13231056  MISS:          4
BTB BRANCH_DIRECT_CALL	ACCESS:    4434205  HIT:    4434204  MISS:          1
BTB BRANCH_INDIRECT_CALL	ACCESS:          0  HIT:          0  MISS:          0
BTB BRANCH_RETURN	ACCESS:    4434205  HIT:    4434204  MISS:          1
BTB BRANCH_OTHER ACCESS:          0  HIT:          0  MISS:          0

L2C SPEC fills:          0  NON-SPEC fills:     889589
L2C Test counter :          0
L2C Leapfrog:          0
L2C MSHR merge:      37338
L2C TOTAL     ACCESS:   49077044  HIT:   28639839  MISS:   20437205  HIT %:    58.3569  MISS %:    41.6431   MPKI: 102.186
L2C LOAD      TOTAL       ACCESS:   10553713  HIT:    3966404  MISS:    6587309  HIT %:     37.583  MISS %:     62.417   MPKI: 32.9365
L2C LOAD      NON_SPEC    ACCESS:    3566703  HIT:    2677114  MISS:     889589  HIT %:    75.0585  MISS %:    24.9415   MPKI: 4.44794
L2C LOAD      SPEC        ACCESS:    6987010  HIT:    1289290  MISS:    5697720  HIT %:    18.4527  MISS %:    81.5473   MPKI: 28.4886
L2C RFO       NON_SPEC    ACCESS:     554347  HIT:     394941  MISS:     159406  HIT %:    71.2444  MISS %:    28.7556   MPKI: 0.79703
L2C PREFETCH  NON_SPEC    ACCESS:    7885291  HIT:    3992602  MISS:    3892689  HIT %:    50.6335  MISS %:    49.3665   MPKI: 19.4634
L2C WRITEBACK NON_SPEC    ACCESS:     718803  HIT:     718794  MISS:          9  HIT %:    99.9987  MISS %: 0.00125208   MPKI: 4.5e-05
L2C CLEAN_EVICTION NON_SPEC    ACCESS:    6133997  HIT:     409006  MISS:    5724991  HIT %:    6.66785  MISS %:    93.3321   MPKI: 28.625
L2C COMMIT LOAD NON_SPEC    ACCESS:       6918  HIT:       5045  MISS:       1873  HIT %:    72.9257  MISS %:    27.0743   MPKI: 0.009365
L2C LOAD TRANSLATION NON_SPEC    ACCESS:   23223975  HIT:   19153047  MISS:    4070928  HIT %:     82.471  MISS %:     17.529   MPKI: 20.3546
L2C PREFETCH  REQUESTED:    9755717  ISSUED:    9755717  USEFUL:     964712  USELESS:    2928215
L2C USEFUL LOAD PREFETCHES:     964712 PREFETCH ISSUED TO LOWER LEVEL:    5021037  ACCURACY: 19.2134
L2C TIMELY PREFETCHES:     964712 LATE PREFETCHES: 37338 DROPPED PREFETCHES: 0
L2C COMMIT LATE PREFETCHES: 0 MISSED OPPORTUNITY: 0 LATE IN PQ: 0 UNCOVERED: 0
L2C COMMIT LATE MSHR PREFETCHES: 0
L2C MPKI TOTAL: 32.9365 MSHR LATE: 0.18669 PQ LATE: 0 COMMIT LATE: 0 MISSED OPPORTUNITY: 0 UNCOVERED: 0
L2C PREFETCHES SAME FILL-ORIGIN LEVEL: 3930027 DIFFERENT FILL-ORIGIN LEVEL: 1091010
L2C AVERAGE MISS LATENCY: 58.393 cycles
L2C AVERAGE MISS LATENCY LOAD: 137.053 cycles
L2C AVERAGE MISS LATENCY PREFETCH: 41.2654 cycles
L2C AVERAGE MSHR OCCUPANCY: 0.735138
L2C MSHR FULL: 0
L2C RQ	ACCESS:   34340100	FORWARD:          0	MERGED:          0	TO_CACHE:   34338953
L2C WQ	ACCESS:    6852800	FORWARD:       1147	MERGED:          0	TO_CACHE:    6852800
L2C PQ	ACCESS:    9755717	FORWARD:          0	MERGED:      11474	TO_CACHE:    9744243

L2C Instructions Evicting Data 0
L2C Translations Evicting Data 2669369
L2C Data Evicting Data 3632698
L2C Instructions Evicting Instructions 0
L2C Translations Evicting Instructions 0
L2C Data Evicting Instructions 0
L2C Instructions Evicting Translations 0
L2C Translations Evicting Translations 1401559
L2C Data Evicting Translations 1310859
L2C Dense regions hint from L2: 0
PSCL5 SPEC fills:          0  NON-SPEC fills:          0
PSCL5 Test counter :          0
PSCL5 Leapfrog:          0
PSCL5 MSHR merge:          0
PSCL5 TOTAL     ACCESS:          0  HIT:          0  MISS:          0  HIT %:       -nan  MISS %:       -nan   MPKI: 0
PSCL5 PREFETCH  REQUESTED:          0  ISSUED:          0  USEFUL:          0  USELESS:          0
PSCL5 USEFUL LOAD PREFETCHES:          0 PREFETCH ISSUED TO LOWER LEVEL:          0  ACCURACY: -nan
PSCL5 TIMELY PREFETCHES:          0 LATE PREFETCHES: 0 DROPPED PREFETCHES: 0
PSCL5 COMMIT LATE PREFETCHES: 0 MISSED OPPORTUNITY: 0 LATE IN PQ: 0 UNCOVERED: 0
PSCL5 COMMIT LATE MSHR PREFETCHES: 0
PSCL5 MPKI TOTAL: 0 MSHR LATE: 0 PQ LATE: 0 COMMIT LATE: 0 MISSED OPPORTUNITY: 0 UNCOVERED: 0
PSCL5 PREFETCHES SAME FILL-ORIGIN LEVEL: 0 DIFFERENT FILL-ORIGIN LEVEL: 0

PSCL4 SPEC fills:          0  NON-SPEC fills:          0
PSCL4 Test counter :          0
PSCL4 Leapfrog:          0
PSCL4 MSHR merge:          0
PSCL4 TOTAL     ACCESS:          0  HIT:          0  MISS:          0  HIT %:       -nan  MISS %:       -nan   MPKI: 0
PSCL4 PREFETCH  REQUESTED:          0  ISSUED:          0  USEFUL:          0  USELESS:          0
PSCL4 USEFUL LOAD PREFETCHES:          0 PREFETCH ISSUED TO LOWER LEVEL:          0  ACCURACY: -nan
PSCL4 TIMELY PREFETCHES:          0 LATE PREFETCHES: 0 DROPPED PREFETCHES: 0
PSCL4 COMMIT LATE PREFETCHES: 0 MISSED OPPORTUNITY: 0 LATE IN PQ: 0 UNCOVERED: 0
PSCL4 COMMIT LATE MSHR PREFETCHES: 0
PSCL4 MPKI TOTAL: 0 MSHR LATE: 0 PQ LATE: 0 COMMIT LATE: 0 MISSED OPPORTUNITY: 0 UNCOVERED: 0
PSCL4 PREFETCHES SAME FILL-ORIGIN LEVEL: 0 DIFFERENT FILL-ORIGIN LEVEL: 0

PSCL3 SPEC fills:          0  NON-SPEC fills:          0
PSCL3 Test counter :          0
PSCL3 Leapfrog:          0
PSCL3 MSHR merge:          0
PSCL3 TOTAL     ACCESS:          0  HIT:          0  MISS:          0  HIT %:       -nan  MISS %:       -nan   MPKI: 0
PSCL3 PREFETCH  REQUESTED:          0  ISSUED:          0  USEFUL:          0  USELESS:          0
PSCL3 USEFUL LOAD PREFETCHES:          0 PREFETCH ISSUED TO LOWER LEVEL:          0  ACCURACY: -nan
PSCL3 TIMELY PREFETCHES:          0 LATE PREFETCHES: 0 DROPPED PREFETCHES: 0
PSCL3 COMMIT LATE PREFETCHES: 0 MISSED OPPORTUNITY: 0 LATE IN PQ: 0 UNCOVERED: 0
PSCL3 COMMIT LATE MSHR PREFETCHES: 0
PSCL3 MPKI TOTAL: 0 MSHR LATE: 0 PQ LATE: 0 COMMIT LATE: 0 MISSED OPPORTUNITY: 0 UNCOVERED: 0
PSCL3 PREFETCHES SAME FILL-ORIGIN LEVEL: 0 DIFFERENT FILL-ORIGIN LEVEL: 0

PSCL2 SPEC fills:          0  NON-SPEC fills:          0
PSCL2 Test counter :          0
PSCL2 Leapfrog:          0
PSCL2 MSHR merge:          0
PSCL2 TOTAL     ACCESS:          0  HIT:          0  MISS:          0  HIT %:       -nan  MISS %:       -nan   MPKI: 0
PSCL2 PREFETCH  REQUESTED:          0  ISSUED:          0  USEFUL:          0  USELESS:          0
PSCL2 USEFUL LOAD PREFETCHES:          0 PREFETCH ISSUED TO LOWER LEVEL:          0  ACCURACY: -nan
PSCL2 TIMELY PREFETCHES:          0 LATE PREFETCHES: 0 DROPPED PREFETCHES: 0
PSCL2 COMMIT LATE PREFETCHES: 0 MISSED OPPORTUNITY: 0 LATE IN PQ: 0 UNCOVERED: 0
PSCL2 COMMIT LATE MSHR PREFETCHES: 0
PSCL2 MPKI TOTAL: 0 MSHR LATE: 0 PQ LATE: 0 COMMIT LATE: 0 MISSED OPPORTUNITY: 0 UNCOVERED: 0
PSCL2 PREFETCHES SAME FILL-ORIGIN LEVEL: 0 DIFFERENT FILL-ORIGIN LEVEL: 0

LLC SPEC fills:          0  NON-SPEC fills:     316038
LLC Test counter :          0
LLC Leapfrog:          0
LLC MSHR merge:        686
LLC TOTAL     ACCESS:   22192927  HIT:   12203964  MISS:    9988963  HIT %:    54.9903  MISS %:    45.0097   MPKI: 49.9448
LLC LOAD      TOTAL       ACCESS:    6549935  HIT:    1600871  MISS:    4949064  HIT %:     24.441  MISS %:     75.559   MPKI: 24.7453
LLC LOAD      NON_SPEC    ACCESS:     884669  HIT:     568631  MISS:     316038  HIT %:    64.2761  MISS %:    35.7239   MPKI: 1.58019
LLC LOAD      SPEC        ACCESS:    5665266  HIT:    1032240  MISS:    4633026  HIT %:    18.2205  MISS %:    81.7795   MPKI: 23.1651
LLC RFO       NON_SPEC    ACCESS:     159396  HIT:     159394  MISS:          2  HIT %:    99.9987  MISS %: 0.00125474   MPKI: 1e-05
LLC PREFETCH  NON_SPEC    ACCESS:    5019518  HIT:    4638199  MISS:     381319  HIT %:    92.4033  MISS %:    7.59673   MPKI: 1.90659
LLC WRITEBACK NON_SPEC    ACCESS:     545288  HIT:     545288  MISS:          0  HIT %:        100  MISS %:          0   MPKI: 0
LLC CLEAN_EVICTION NON_SPEC    ACCESS:    5845991  HIT:    1204272  MISS:    4641719  HIT %:       20.6  MISS %:       79.4   MPKI: 23.2086
LLC COMMIT LOAD NON_SPEC    ACCESS:       1871  HIT:       1202  MISS:        669  HIT %:    64.2437  MISS %:    35.7563   MPKI: 0.003345
LLC LOAD TRANSLATION NON_SPEC    ACCESS:    4070928  HIT:    4054738  MISS:      16190  HIT %:    99.6023  MISS %:   0.397698   MPKI: 0.08095
LLC PREFETCH  REQUESTED:          0  ISSUED:          0  USEFUL:      32866  USELESS:     347474
LLC USEFUL LOAD PREFETCHES:      32866 PREFETCH ISSUED TO LOWER LEVEL:     382005  ACCURACY: 8.60355
LLC TIMELY PREFETCHES:      32866 LATE PREFETCHES: 686 DROPPED PREFETCHES: 0
LLC COMMIT LATE PREFETCHES: 0 MISSED OPPORTUNITY: 0 LATE IN PQ: 0 UNCOVERED: 0
LLC COMMIT LATE MSHR PREFETCHES: 0
LLC MPKI TOTAL: 24.7453 MSHR LATE: 0.00343 PQ LATE: 0 COMMIT LATE: 0 MISSED OPPORTUNITY: 0 UNCOVERED: 0
LLC PREFETCHES SAME FILL-ORIGIN LEVEL: 114561 DIFFERENT FILL-ORIGIN LEVEL: 0
LLC AVERAGE MISS LATENCY: 82.525 cycles
LLC AVERAGE MISS LATENCY LOAD: 152.399 cycles
LLC AVERAGE MISS LATENCY PREFETCH: 176.073 cycles
LLC AVERAGE MSHR OCCUPANCY: 0.698928
LLC MSHR FULL: 0
LLC RQ	ACCESS:   10782178	FORWARD:          0	MERGED:          0	TO_CACHE:   10782130
LLC WQ	ACCESS:    6391278	FORWARD:         78	MERGED:          0	TO_CACHE:    6391278
LLC PQ	ACCESS:    5021037	FORWARD:          0	MERGED:        354	TO_CACHE:    5020653

LLC Dense regions hint to LLC: 0

RAW hits: 4054227
Loads Generated: 53208719
Loads sent to L1D: 49154492
Stores Generated: 8868414
Stores sent to L1D: 8868414
Major fault: 0 Minor fault: 101164
Allocated PAGES: 101164
Total Load insts: 61394914
Total Non-spec loads: 9296128
Percentage of speculative loads: 84.8585

LeapFrogging counter: 0
Commit hits: 19286478 miss: 21948971
Commit hit %: 46.7716 miss %: 53.2284
Commits not translated: 0
Loads retired: 10554860
Stores retired: 8868414
Cache fills: 10554860
L1D response latency: 98.0035 cycles
Load retirement latency: 229.506 cycles
OOO test counter: 0
Discarded buffer inserts: 19286478 hits: 11079 hit %: 0.0574444
Filter prediction accuracy: 97.5299
------------------
Depth Distribution
------------------
depth 0: 4816408
depth 1: 7513380
depth 2: 311395
depth 3: 128
depth 4: 0
depth 5: 0
depth 6: 0
depth 7: 0
depth 8: 0
depth 9: 0
depth 10: 0
depth 11: 0
depth 12: 0
depth 13: 0
depth 14: 0
depth 15: 0
depth 16: 0
depth 17: 0
depth 18: 0
depth 19: 0
depth 20: 0
depth 21: 0
depth 22: 0
depth 23: 0
depth 24: 0
depth 25: 0
depth 26: 0
depth 27: 0
depth 28: 0
depth 29: 0
Total: 12641311
------------------
ST read accesses: 5696540
ST write accesses: 4857173
PT read accesses: 96125534
PT write accesses: 6065262
FILTER read accesses: 56184040
FILTER write accesses: 53225327
GHR read accesses: 43189173
GHR write accesses: 605764
PERC read accesses: 701037126
PERC write accesses: 117521938
GHR counter read accesses: 21107426
GHR counter write accesses: 24929334
GHR ip read accesses: 91975026
GHR ip write accesses: 42214852
ST tag read accesses: 6544968798
ST tag write accesses: 1256602223

DRAM Statistics
 CHANNEL 0
 RQ ROW_BUFFER_HIT:      32269  ROW_BUFFER_MISS:    5314952
 DBUS_CONGESTED:        129
 WQ ROW_BUFFER_HIT:    1188752  ROW_BUFFER_MISS:    3792205  FULL:          0

 AVG_CONGESTED_CYCLE: 5
 All warmup complete: 2
Channel 0 Bank busy for read cycles: 0
Channel 0 Bank busy for write cycles: 0
Channel 0
Rank 0
0banks busy for read cycles: 83888093
0banks busy for write cycles: 743982
1banks busy for read cycles: 410041466
1banks busy for write cycles: 118775150
2banks busy for read cycles: 140297393
2banks busy for write cycles: 91247709
3banks busy for read cycles: 32812234
3banks busy for write cycles: 63697240
4banks busy for read cycles: 2149212
4banks busy for write cycles: 44702616
5banks busy for read cycles: 202184
5banks busy for write cycles: 29185759
6banks busy for read cycles: 32421
6banks busy for write cycles: 16982664
7banks busy for read cycles: 5673
7banks busy for write cycles: 8610214
8banks busy for read cycles: 540
8banks busy for write cycles: 4063780

CPU 0 Branch Prediction Accuracy: 99.988% MPKI: 0.01864 Average ROB Occupancy at Mispredict: 327.508
Branch types
NOT_BRANCH: 168845084 84.4225%
BRANCH_DIRECT_JUMP: 4549688 2.27484%
BRANCH_INDIRECT: 0 0%
BRANCH_CONDITIONAL: 17736819 8.86841%
BRANCH_DIRECT_CALL: 4434205 2.2171%
BRANCH_INDIRECT_CALL: 0 0%
BRANCH_RETURN: 4434205 2.2171%
BRANCH_OTHER: 0 0%

DRAM PAGES: 1048576
Allocated PAGES: 101164
