Initialize SIGNATURE TABLE
ST_SET: 1
ST_WAY: 256
ST_TAG_BIT: 16
ST_TAG_MASK: ffff

Initialize PATTERN TABLE
PT_SET: 512
PT_WAY: 4
SIG_DELTA_BIT: 7
C_SIG_BIT: 4
C_DELTA_BIT: 4

Initialize PREFETCH FILTER
FILTER_SET: 1024

Initialize PERCEPTRON
PERC_ENTRIES: 4096
PERC_FEATURES: 9

*** ChampSim Multicore Out-of-Order Simulator ***

Warmup Instructions: 50000000
Simulation Instructions: 200000000
Number of CPUs: 1
LLC sets: 2048
LLC ways: 16
L0D sets: 16
L0D ways: 2
ROB size: 352
LQ size: 128
SQ size: 72
Secure Berti: OFF
Berti: OFF
Berti Fill: OFF
On commit prefetching: OFF
Hit-based filter: ON
Time-guarding: ON
Free-slotting: ON
Leap-frogging: ON
Train prefetcher on L0D bypass: OFF
No translation penalty for prefetchers: OFF
Prefetch to L0D only: OFF
Prefetch to L1D only: OFF
Clean evictions: ON
Commit loads: ON
Commit write: ON
Fill commit loads to L2C, LLC: ON
DRAM IO FREQUENCY: 6400
ROB SIZE: 352
Off-chip DRAM Size: 4096 MB Channels: 1 Width: 64-bit Data Rate: 6400 MT/s
CPU 0 runs /home/sumon/secure_berti/GhostMinion/../../traces/spec/605.mcf_s-1554B.champsimtrace.xz
.xz
BTB has LRU replacement policy
ITLB has LRU replacement policy
DTLB has LRU replacement policy
STLB has LRU replacement policy
L1I has LRU replacement policy
L0D has LRU replacement policy
L1D has LRU replacement policy
PERC_ENTRIES: 4096
L2C has LRU replacement policy
LLC has LRU replacement policy
Heartbeat CPU 0 instructions: 10000001 cycles: 4307698 heartbeat IPC: 2.32143 cumulative IPC: 2.32143 (Simulation time: 0 hr 0 min 52 sec) 
Heartbeat CPU 0 instructions: 20000001 cycles: 8636202 heartbeat IPC: 2.31027 cumulative IPC: 2.31583 (Simulation time: 0 hr 1 min 43 sec) 
Heartbeat CPU 0 instructions: 30000003 cycles: 12982657 heartbeat IPC: 2.30073 cumulative IPC: 2.31078 (Simulation time: 0 hr 2 min 34 sec) 
Heartbeat CPU 0 instructions: 40000001 cycles: 17313708 heartbeat IPC: 2.30891 cumulative IPC: 2.31031 (Simulation time: 0 hr 3 min 27 sec) 
Heartbeat CPU 0 instructions: 50000001 cycles: 21644303 heartbeat IPC: 2.30915 cumulative IPC: 2.31008 (Simulation time: 0 hr 4 min 20 sec) 

Warmup complete CPU 0 instructions: 50000001 cycles: 21644303 (Simulation time: 0 hr 4 min 20 sec) 

Heartbeat CPU 0 instructions: 60000000 cycles: 75478043 heartbeat IPC: 0.185757 cumulative IPC: 0.185757 (Simulation time: 0 hr 6 min 5 sec) 
Heartbeat CPU 0 instructions: 70000002 cycles: 128795855 heartbeat IPC: 0.187555 cumulative IPC: 0.186652 (Simulation time: 0 hr 7 min 51 sec) 
Heartbeat CPU 0 instructions: 80000002 cycles: 182317288 heartbeat IPC: 0.186841 cumulative IPC: 0.186715 (Simulation time: 0 hr 9 min 39 sec) 
Heartbeat CPU 0 instructions: 90000003 cycles: 235823350 heartbeat IPC: 0.186895 cumulative IPC: 0.18676 (Simulation time: 0 hr 11 min 31 sec) 
Heartbeat CPU 0 instructions: 100000003 cycles: 289218299 heartbeat IPC: 0.187284 cumulative IPC: 0.186864 (Simulation time: 0 hr 13 min 20 sec) 
Heartbeat CPU 0 instructions: 110000000 cycles: 343094466 heartbeat IPC: 0.185611 cumulative IPC: 0.186654 (Simulation time: 0 hr 14 min 58 sec) 
Heartbeat CPU 0 instructions: 120000001 cycles: 398194804 heartbeat IPC: 0.181487 cumulative IPC: 0.185898 (Simulation time: 0 hr 16 min 32 sec) 
Heartbeat CPU 0 instructions: 130000000 cycles: 452216052 heartbeat IPC: 0.185112 cumulative IPC: 0.185799 (Simulation time: 0 hr 18 min 0 sec) 
Heartbeat CPU 0 instructions: 140000000 cycles: 507092354 heartbeat IPC: 0.182228 cumulative IPC: 0.185396 (Simulation time: 0 hr 19 min 28 sec) 
Heartbeat CPU 0 instructions: 150000000 cycles: 562331618 heartbeat IPC: 0.181031 cumulative IPC: 0.18495 (Simulation time: 0 hr 20 min 57 sec) 
Heartbeat CPU 0 instructions: 160000000 cycles: 618168922 heartbeat IPC: 0.179092 cumulative IPC: 0.184401 (Simulation time: 0 hr 22 min 25 sec) 
Heartbeat CPU 0 instructions: 170000003 cycles: 674370781 heartbeat IPC: 0.17793 cumulative IPC: 0.183844 (Simulation time: 0 hr 23 min 53 sec) 
Heartbeat CPU 0 instructions: 180000002 cycles: 730490629 heartbeat IPC: 0.17819 cumulative IPC: 0.183397 (Simulation time: 0 hr 25 min 20 sec) 
Heartbeat CPU 0 instructions: 190000002 cycles: 785893811 heartbeat IPC: 0.180495 cumulative IPC: 0.183186 (Simulation time: 0 hr 26 min 46 sec) 
Heartbeat CPU 0 instructions: 200000002 cycles: 842667373 heartbeat IPC: 0.176138 cumulative IPC: 0.182699 (Simulation time: 0 hr 28 min 14 sec) 
Heartbeat CPU 0 instructions: 210000003 cycles: 897165062 heartbeat IPC: 0.183494 cumulative IPC: 0.182748 (Simulation time: 0 hr 29 min 38 sec) 
Heartbeat CPU 0 instructions: 220000000 cycles: 951317033 heartbeat IPC: 0.184665 cumulative IPC: 0.18286 (Simulation time: 0 hr 31 min 2 sec) 
Heartbeat CPU 0 instructions: 230000002 cycles: 1007562036 heartbeat IPC: 0.177794 cumulative IPC: 0.182571 (Simulation time: 0 hr 32 min 29 sec) 
Heartbeat CPU 0 instructions: 240000001 cycles: 1061310686 heartbeat IPC: 0.186051 cumulative IPC: 0.182751 (Simulation time: 0 hr 33 min 52 sec) 
Heartbeat CPU 0 instructions: 250000002 cycles: 1115860705 heartbeat IPC: 0.183318 cumulative IPC: 0.182779 (Simulation time: 0 hr 35 min 18 sec) 
Finished CPU 0 instructions: 200000001 cycles: 1094216402 cumulative IPC: 0.182779 (Simulation time: 0 hr 35 min 18 sec) 
 Instruction ID: 250000342

ChampSim completed all CPUs

Region of Interest Statistics

CPU 0 cumulative IPC: 0.182779 instructions: 200000001 cycles: 1094216402
ITLB SPEC fills:          0  NON-SPEC fills:          0
ITLB Test counter :          0
ITLB Leapfrog:          0
ITLB MSHR merge:          0
ITLB TOTAL     ACCESS:   42892440  HIT:   42892440  MISS:          0  HIT %:        100  MISS %:          0   MPKI: 0
ITLB LOAD TRANSLATION NON_SPEC    ACCESS:   42892440  HIT:   42892440  MISS:          0  HIT %:        100  MISS %:          0   MPKI: 0
ITLB PREFETCH  REQUESTED:          0  ISSUED:          0  USEFUL:          0  USELESS:          0
ITLB USEFUL LOAD PREFETCHES:          0 PREFETCH ISSUED TO LOWER LEVEL:          0  ACCURACY: -nan
ITLB TIMELY PREFETCHES:          0 LATE PREFETCHES: 0 DROPPED PREFETCHES: 0
ITLB COMMIT LATE PREFETCHES: 0 MISSED OPPORTUNITY: 0 LATE IN PQ: 0 UNCOVERED: 0
ITLB COMMIT LATE MSHR PREFETCHES: 0
ITLB MPKI TOTAL: 0 MSHR LATE: 0 PQ LATE: 0 COMMIT LATE: 0 MISSED OPPORTUNITY: 0 UNCOVERED: 0
ITLB PREFETCHES SAME FILL-ORIGIN LEVEL: 0 DIFFERENT FILL-ORIGIN LEVEL: 0
ITLB AVERAGE MISS LATENCY: -nan cycles
ITLB AVERAGE MISS LATENCY LOAD: -nan cycles
ITLB AVERAGE MISS LATENCY PREFETCH: -nan cycles
ITLB AVERAGE MSHR OCCUPANCY: 0
ITLB MSHR FULL: 0
ITLB RQ	ACCESS:   52053951	FORWARD:          0	MERGED:    9161511	TO_CACHE:   42892440

DTLB SPEC fills:          0  NON-SPEC fills:          0
DTLB Test counter :          0
DTLB Leapfrog:          0
DTLB MSHR merge:          0
DTLB TOTAL     ACCESS:   68988351  HIT:   68187761  MISS:     800590  HIT %:    98.8395  MISS %:    1.16047   MPKI: 4.00295
DTLB LOAD TRANSLATION NON_SPEC    ACCESS:   68988351  HIT:   68187761  MISS:     800590  HIT %:    98.8395  MISS %:    1.16047   MPKI: 4.00295
DTLB PREFETCH  REQUESTED:          0  ISSUED:          0  USEFUL:          0  USELESS:          0
DTLB USEFUL LOAD PREFETCHES:          0 PREFETCH ISSUED TO LOWER LEVEL:          0  ACCURACY: -nan
DTLB TIMELY PREFETCHES:          0 LATE PREFETCHES: 0 DROPPED PREFETCHES: 0
DTLB COMMIT LATE PREFETCHES: 0 MISSED OPPORTUNITY: 0 LATE IN PQ: 0 UNCOVERED: 0
DTLB COMMIT LATE MSHR PREFETCHES: 0
DTLB MPKI TOTAL: 0 MSHR LATE: 0 PQ LATE: 0 COMMIT LATE: 0 MISSED OPPORTUNITY: 0 UNCOVERED: 0
DTLB PREFETCHES SAME FILL-ORIGIN LEVEL: 0 DIFFERENT FILL-ORIGIN LEVEL: 0
DTLB AVERAGE MISS LATENCY: 13.8776 cycles
DTLB AVERAGE MISS LATENCY LOAD: -nan cycles
DTLB AVERAGE MISS LATENCY PREFETCH: -nan cycles
DTLB AVERAGE MSHR OCCUPANCY: 0.0164811
DTLB MSHR FULL: 0
DTLB RQ	ACCESS:   84866925	FORWARD:          0	MERGED:   15844243	TO_CACHE:   69022682

STLB SPEC fills:          0  NON-SPEC fills:          0
STLB Test counter :          0
STLB Leapfrog:          0
STLB MSHR merge:          0
STLB TOTAL     ACCESS:     800590  HIT:     788322  MISS:      12268  HIT %:    98.4676  MISS %:    1.53237   MPKI: 0.06134
STLB LOAD TRANSLATION NON_SPEC    ACCESS:     800590  HIT:     788322  MISS:      12268  HIT %:    98.4676  MISS %:    1.53237   MPKI: 0.06134
STLB PREFETCH  REQUESTED:          0  ISSUED:          0  USEFUL:          0  USELESS:          0
STLB USEFUL LOAD PREFETCHES:          0 PREFETCH ISSUED TO LOWER LEVEL:          0  ACCURACY: -nan
STLB TIMELY PREFETCHES:          0 LATE PREFETCHES: 0 DROPPED PREFETCHES: 0
STLB COMMIT LATE PREFETCHES: 0 MISSED OPPORTUNITY: 0 LATE IN PQ: 0 UNCOVERED: 0
STLB COMMIT LATE MSHR PREFETCHES: 0
STLB MPKI TOTAL: 0 MSHR LATE: 0 PQ LATE: 0 COMMIT LATE: 0 MISSED OPPORTUNITY: 0 UNCOVERED: 0
STLB PREFETCHES SAME FILL-ORIGIN LEVEL: 0 DIFFERENT FILL-ORIGIN LEVEL: 0
STLB AVERAGE MISS LATENCY: 317.196 cycles
STLB AVERAGE MISS LATENCY LOAD: -nan cycles
STLB AVERAGE MISS LATENCY PREFETCH: -nan cycles
STLB AVERAGE MSHR OCCUPANCY: 0.00326759
STLB MSHR FULL: 0
STLB RQ	ACCESS:     800590	FORWARD:          0	MERGED:          0	TO_CACHE:     800590

STLB Hit, L1D data hit: 0
STLB Hit, L2C data hit: 0
STLB Hit, LLC data hit: 0
STLB Hit, LLC data miss: 0
STLB STLB hints to L2: 0
L0D SPEC fills:   42201490  NON-SPEC fills:          0
L0D TimeGuard Request with older TS:    2367517 Restricted eviction:     951801 read:    2379602
L0D Test counter :          0
L0D Leapfrog:          0
L0D MSHR merge:    4178818
L0D TOTAL     ACCESS:   67169407  HIT:   16384309  MISS:   50785098  HIT %:    24.3925  MISS %:    75.6075   MPKI: 253.925
L0D LOAD      TOTAL       ACCESS:   67169407  HIT:   16384309  MISS:   50785098  HIT %:    24.3925  MISS %:    75.6075   MPKI: 253.925
L0D LOAD      NON_SPEC    ACCESS:    8326695  HIT:     694888  MISS:    7631807  HIT %:     8.3453  MISS %:    91.6547   MPKI: 38.159
L0D LOAD      SPEC        ACCESS:   58842712  HIT:   15689421  MISS:   43153291  HIT %:    26.6633  MISS %:    73.3367   MPKI: 215.766
L0D PREFETCH  REQUESTED:          0  ISSUED:          0  USEFUL:          0  USELESS:          0
L0D USEFUL LOAD PREFETCHES:          0 PREFETCH ISSUED TO LOWER LEVEL:          0  ACCURACY: -nan
L0D TIMELY PREFETCHES:          0 LATE PREFETCHES: 0 DROPPED PREFETCHES: 0
L0D COMMIT LATE PREFETCHES: 0 MISSED OPPORTUNITY: 0 LATE IN PQ: 0 UNCOVERED: 0
L0D COMMIT LATE MSHR PREFETCHES: 0
L0D MPKI TOTAL: 274.82 MSHR LATE: 0 PQ LATE: 0 COMMIT LATE: 0 MISSED OPPORTUNITY: 0 UNCOVERED: 0
L0D PREFETCHES SAME FILL-ORIGIN LEVEL: 0 DIFFERENT FILL-ORIGIN LEVEL: 0
L0D AVERAGE MISS LATENCY: 84.0992 cycles
L0D AVERAGE MISS LATENCY LOAD: 84.0992 cycles
L0D AVERAGE MISS LATENCY PREFETCH: -nan cycles
L0D AVERAGE MSHR OCCUPANCY: 4.60037
L0D MSHR FULL: 0.246386
L0D RQ	ACCESS:   83197894	FORWARD:          0	MERGED:   11849671	TO_CACHE:   71348223
L0D WQ	ACCESS:   13518702	FORWARD:          0	MERGED:          0	TO_CACHE:   13518702

L1D SPEC fills:          0  NON-SPEC fills:    3438114
L1D Test counter :          0
L1D Leapfrog:          0
L1D MSHR merge:      31882
L1D TOTAL     ACCESS:   95537345  HIT:   35143124  MISS:   60394221  HIT %:    36.7847  MISS %:    63.2153   MPKI: 301.971
L1D LOAD      TOTAL       ACCESS:   50753216  HIT:   18143973  MISS:   32609243  HIT %:    35.7494  MISS %:    64.2506   MPKI: 163.046
L1D LOAD      NON_SPEC    ACCESS:    7621739  HIT:    4183625  MISS:    3438114  HIT %:    54.8907  MISS %:    45.1093   MPKI: 17.1906
L1D LOAD      SPEC        ACCESS:   43131477  HIT:   13960348  MISS:   29171129  HIT %:     32.367  MISS %:     67.633   MPKI: 145.856
L1D RFO       NON_SPEC    ACCESS:    9850312  HIT:    9435413  MISS:     414899  HIT %:     95.788  MISS %:    4.21204   MPKI: 2.07449
L1D COMMIT LOAD NON_SPEC    ACCESS:    7319590  HIT:    6090133  MISS:    1229457  HIT %:    83.2032  MISS %:    16.7968   MPKI: 6.14728
L1D COMMIT WRITE NON_SPEC    ACCESS:   27614227  HIT:    1473605  MISS:   26140622  HIT %:     5.3364  MISS %:    94.6636   MPKI: 130.703
L1D PREFETCH  REQUESTED:          0  ISSUED:          0  USEFUL:          0  USELESS:          0
L1D USEFUL LOAD PREFETCHES:          0 PREFETCH ISSUED TO LOWER LEVEL:          0  ACCURACY: -nan
L1D TIMELY PREFETCHES:          0 LATE PREFETCHES: 0 DROPPED PREFETCHES: 0
L1D COMMIT LATE PREFETCHES: 0 MISSED OPPORTUNITY: 0 LATE IN PQ: 0 UNCOVERED: 0
L1D COMMIT LATE MSHR PREFETCHES: 0
L1D MPKI TOTAL: 163.206 MSHR LATE: 0 PQ LATE: 0 COMMIT LATE: 0 MISSED OPPORTUNITY: 0 UNCOVERED: 0
L1D PREFETCHES SAME FILL-ORIGIN LEVEL: 0 DIFFERENT FILL-ORIGIN LEVEL: 0
L1D AVERAGE MISS LATENCY: 68.0212 cycles
L1D AVERAGE MISS LATENCY LOAD: 120.093 cycles
L1D AVERAGE MISS LATENCY PREFETCH: -nan cycles
L1D AVERAGE MSHR OCCUPANCY: 3.0531
L1D MSHR FULL: 0
L1D RQ	ACCESS:   58589458	FORWARD:          0	MERGED:     391544	TO_CACHE:   58187150
L1D WQ	ACCESS:   41132932	FORWARD:      10764	MERGED:    2227112	TO_CACHE:   38905820

L1D UNIQUE REGIONS ACCESSED: 0
L1D REGIONS CONFLICTS: 0
L1D Cross Page Prefetch Requests: 0
L1D Same Page Prefetch Requests: 0
L1D ROI Sum of L1D PQ occupancy: 0
L1D PREFETCHES PUSHED FROM L2C: 0
L1I SPEC fills:          0  NON-SPEC fills:          0
L1I Test counter :          0
L1I Leapfrog:          0
L1I MSHR merge:          0
L1I TOTAL     ACCESS:   52053949  HIT:   52053949  MISS:          0  HIT %:        100  MISS %:          0   MPKI: 0
L1I LOAD      TOTAL       ACCESS:   52053949  HIT:   52053949  MISS:          0  HIT %:        100  MISS %:          0   MPKI: 0
L1I LOAD      NON_SPEC    ACCESS:   52053949  HIT:   52053949  MISS:          0  HIT %:        100  MISS %:          0   MPKI: 0
L1I PREFETCH  REQUESTED:          0  ISSUED:          0  USEFUL:          0  USELESS:          0
L1I USEFUL LOAD PREFETCHES:          0 PREFETCH ISSUED TO LOWER LEVEL:          0  ACCURACY: -nan
L1I TIMELY PREFETCHES:          0 LATE PREFETCHES: 0 DROPPED PREFETCHES: 0
L1I COMMIT LATE PREFETCHES: 0 MISSED OPPORTUNITY: 0 LATE IN PQ: 0 UNCOVERED: 0
L1I COMMIT LATE MSHR PREFETCHES: 0
L1I MPKI TOTAL: 0 MSHR LATE: 0 PQ LATE: 0 COMMIT LATE: 0 MISSED OPPORTUNITY: 0 UNCOVERED: 0
L1I PREFETCHES SAME FILL-ORIGIN LEVEL: 0 DIFFERENT FILL-ORIGIN LEVEL: 0
L1I AVERAGE MISS LATENCY: -nan cycles
L1I AVERAGE MISS LATENCY LOAD: -nan cycles
L1I AVERAGE MISS LATENCY PREFETCH: -nan cycles
L1I AVERAGE MSHR OCCUPANCY: 0
L1I MSHR FULL: 0
L1I RQ	ACCESS:   71801755	FORWARD:          0	MERGED:   19747804	TO_CACHE:   52053951

BTB SPEC fills:          0  NON-SPEC fills:          0
BTB Test counter :          0
BTB Leapfrog:          0
BTB MSHR merge:          0
BTB TOTAL     ACCESS:   35943470  HIT:   35943438  MISS:         32  HIT %:    99.9999  MISS %: 8.90287e-05   MPKI: 0.00016
BTB BRANCH_DIRECT_JUMP	ACCESS:    8413977  HIT:    8413971  MISS:          6
BTB BRANCH_INDIRECT	ACCESS:          0  HIT:          0  MISS:          0
BTB BRANCH_CONDITIONAL	ACCESS:   27526337  HIT:   27526315  MISS:         22
BTB BRANCH_DIRECT_CALL	ACCESS:       1578  HIT:       1576  MISS:          2
BTB BRANCH_INDIRECT_CALL	ACCESS:          0  HIT:          0  MISS:          0
BTB BRANCH_RETURN	ACCESS:       1578  HIT:       1576  MISS:          2
BTB BRANCH_OTHER ACCESS:          0  HIT:          0  MISS:          0

L2C SPEC fills:          0  NON-SPEC fills:     813113
L2C Test counter :          0
L2C Leapfrog:          0
L2C MSHR merge:   11207418
L2C TOTAL     ACCESS:   79570523  HIT:   20925367  MISS:   58645156  HIT %:    26.2979  MISS %:    73.7021   MPKI: 293.226
L2C LOAD      TOTAL       ACCESS:   32604456  HIT:   17116192  MISS:   15488264  HIT %:    52.4965  MISS %:    47.5035   MPKI: 77.4413
L2C LOAD      NON_SPEC    ACCESS:    3438103  HIT:    2624990  MISS:     813113  HIT %:      76.35  MISS %:      23.65   MPKI: 4.06556
L2C LOAD      SPEC        ACCESS:   29166353  HIT:   14491202  MISS:   14675151  HIT %:    49.6847  MISS %:    50.3153   MPKI: 73.3758
L2C RFO       NON_SPEC    ACCESS:     414897  HIT:      19603  MISS:     395294  HIT %:    4.72479  MISS %:    95.2752   MPKI: 1.97647
L2C PREFETCH  NON_SPEC    ACCESS:   30398907  HIT:    1176837  MISS:   29222070  HIT %:    3.87131  MISS %:    96.1287   MPKI: 146.11
L2C WRITEBACK NON_SPEC    ACCESS:     473864  HIT:     473570  MISS:        294  HIT %:     99.938  MISS %:  0.0620431   MPKI: 0.00147
L2C CLEAN_EVICTION NON_SPEC    ACCESS:   14387627  HIT:    1327673  MISS:   13059954  HIT %:    9.22788  MISS %:    90.7721   MPKI: 65.2998
L2C COMMIT LOAD NON_SPEC    ACCESS:    1229457  HIT:     755509  MISS:     473948  HIT %:    61.4506  MISS %:    38.5494   MPKI: 2.36974
L2C LOAD TRANSLATION NON_SPEC    ACCESS:      61315  HIT:      55983  MISS:       5332  HIT %:    91.3039  MISS %:    8.69608   MPKI: 0.02666
L2C PREFETCH  REQUESTED:   43614458  ISSUED:   43614373  USEFUL:   15977057  USELESS:   13244733
L2C USEFUL LOAD PREFETCHES:   15977057 PREFETCH ISSUED TO LOWER LEVEL:   40454736  ACCURACY: 39.4937
L2C TIMELY PREFETCHES:   15977057 LATE PREFETCHES: 11215785 DROPPED PREFETCHES: 0
L2C COMMIT LATE PREFETCHES: 0 MISSED OPPORTUNITY: 0 LATE IN PQ: 0 UNCOVERED: 0
L2C COMMIT LATE MSHR PREFETCHES: 0
L2C MPKI TOTAL: 77.4413 MSHR LATE: 56.0789 PQ LATE: 0 COMMIT LATE: 0 MISSED OPPORTUNITY: 0 UNCOVERED: 0
L2C PREFETCHES SAME FILL-ORIGIN LEVEL: 40437872 DIFFERENT FILL-ORIGIN LEVEL: 16864
L2C AVERAGE MISS LATENCY: 232.909 cycles
L2C AVERAGE MISS LATENCY LOAD: 235.864 cycles
L2C AVERAGE MISS LATENCY PREFETCH: 336.632 cycles
L2C AVERAGE MSHR OCCUPANCY: 12.6803
L2C MSHR FULL: 0.00859727
L2C RQ	ACCESS:   34314915	FORWARD:          0	MERGED:          0	TO_CACHE:   34310126
L2C WQ	ACCESS:   14861493	FORWARD:       4789	MERGED:          0	TO_CACHE:   14861493
L2C PQ	ACCESS:   43614373	FORWARD:          0	MERGED:      43221	TO_CACHE:   43571152

L2C Instructions Evicting Data 0
L2C Translations Evicting Data 5332
L2C Data Evicting Data 30900319
L2C Instructions Evicting Instructions 0
L2C Translations Evicting Instructions 0
L2C Data Evicting Instructions 0
L2C Instructions Evicting Translations 0
L2C Translations Evicting Translations 0
L2C Data Evicting Translations 4106
L2C Dense regions hint from L2: 0
PSCL5 SPEC fills:          0  NON-SPEC fills:          0
PSCL5 Test counter :          0
PSCL5 Leapfrog:          0
PSCL5 MSHR merge:          0
PSCL5 TOTAL     ACCESS:          0  HIT:          0  MISS:          0  HIT %:       -nan  MISS %:       -nan   MPKI: 0
PSCL5 PREFETCH  REQUESTED:          0  ISSUED:          0  USEFUL:          0  USELESS:          0
PSCL5 USEFUL LOAD PREFETCHES:          0 PREFETCH ISSUED TO LOWER LEVEL:          0  ACCURACY: -nan
PSCL5 TIMELY PREFETCHES:          0 LATE PREFETCHES: 0 DROPPED PREFETCHES: 0
PSCL5 COMMIT LATE PREFETCHES: 0 MISSED OPPORTUNITY: 0 LATE IN PQ: 0 UNCOVERED: 0
PSCL5 COMMIT LATE MSHR PREFETCHES: 0
PSCL5 MPKI TOTAL: 0 MSHR LATE: 0 PQ LATE: 0 COMMIT LATE: 0 MISSED OPPORTUNITY: 0 UNCOVERED: 0
PSCL5 PREFETCHES SAME FILL-ORIGIN LEVEL: 0 DIFFERENT FILL-ORIGIN LEVEL: 0

PSCL4 SPEC fills:          0  NON-SPEC fills:          0
PSCL4 Test counter :          0
PSCL4 Leapfrog:          0
PSCL4 MSHR merge:          0
PSCL4 TOTAL     ACCESS:          0  HIT:          0  MISS:          0  HIT %:       -nan  MISS %:       -nan   MPKI: 0
PSCL4 PREFETCH  REQUESTED:          0  ISSUED:          0  USEFUL:          0  USELESS:          0
PSCL4 USEFUL LOAD PREFETCHES:          0 PREFETCH ISSUED TO LOWER LEVEL:          0  ACCURACY: -nan
PSCL4 TIMELY PREFETCHES:          0 LATE PREFETCHES: 0 DROPPED PREFETCHES: 0
PSCL4 COMMIT LATE PREFETCHES: 0 MISSED OPPORTUNITY: 0 LATE IN PQ: 0 UNCOVERED: 0
PSCL4 COMMIT LATE MSHR PREFETCHES: 0
PSCL4 MPKI TOTAL: 0 MSHR LATE: 0 PQ LATE: 0 COMMIT LATE: 0 MISSED OPPORTUNITY: 0 UNCOVERED: 0
PSCL4 PREFETCHES SAME FILL-ORIGIN LEVEL: 0 DIFFERENT FILL-ORIGIN LEVEL: 0

PSCL3 SPEC fills:          0  NON-SPEC fills:          0
PSCL3 Test counter :          0
PSCL3 Leapfrog:          0
PSCL3 MSHR merge:          0
PSCL3 TOTAL     ACCESS:          0  HIT:          0  MISS:          0  HIT %:       -nan  MISS %:       -nan   MPKI: 0
PSCL3 PREFETCH  REQUESTED:          0  ISSUED:          0  USEFUL:          0  USELESS:          0
PSCL3 USEFUL LOAD PREFETCHES:          0 PREFETCH ISSUED TO LOWER LEVEL:          0  ACCURACY: -nan
PSCL3 TIMELY PREFETCHES:          0 LATE PREFETCHES: 0 DROPPED PREFETCHES: 0
PSCL3 COMMIT LATE PREFETCHES: 0 MISSED OPPORTUNITY: 0 LATE IN PQ: 0 UNCOVERED: 0
PSCL3 COMMIT LATE MSHR PREFETCHES: 0
PSCL3 MPKI TOTAL: 0 MSHR LATE: 0 PQ LATE: 0 COMMIT LATE: 0 MISSED OPPORTUNITY: 0 UNCOVERED: 0
PSCL3 PREFETCHES SAME FILL-ORIGIN LEVEL: 0 DIFFERENT FILL-ORIGIN LEVEL: 0

PSCL2 SPEC fills:          0  NON-SPEC fills:          0
PSCL2 Test counter :          0
PSCL2 Leapfrog:          0
PSCL2 MSHR merge:          0
PSCL2 TOTAL     ACCESS:          0  HIT:          0  MISS:          0  HIT %:       -nan  MISS %:       -nan   MPKI: 0
PSCL2 PREFETCH  REQUESTED:          0  ISSUED:          0  USEFUL:          0  USELESS:          0
PSCL2 USEFUL LOAD PREFETCHES:          0 PREFETCH ISSUED TO LOWER LEVEL:          0  ACCURACY: -nan
PSCL2 TIMELY PREFETCHES:          0 LATE PREFETCHES: 0 DROPPED PREFETCHES: 0
PSCL2 COMMIT LATE PREFETCHES: 0 MISSED OPPORTUNITY: 0 LATE IN PQ: 0 UNCOVERED: 0
PSCL2 COMMIT LATE MSHR PREFETCHES: 0
PSCL2 MPKI TOTAL: 0 MSHR LATE: 0 PQ LATE: 0 COMMIT LATE: 0 MISSED OPPORTUNITY: 0 UNCOVERED: 0
PSCL2 PREFETCHES SAME FILL-ORIGIN LEVEL: 0 DIFFERENT FILL-ORIGIN LEVEL: 0

LLC SPEC fills:          0  NON-SPEC fills:     255425
LLC Test counter :          0
LLC Leapfrog:          0
LLC MSHR merge:         55
LLC TOTAL     ACCESS:   60444891  HIT:   13245516  MISS:   47199375  HIT %:    21.9134  MISS %:    78.0866   MPKI: 235.997
LLC LOAD      TOTAL       ACCESS:    4280849  HIT:     735438  MISS:    3545411  HIT %:    17.1797  MISS %:    82.8203   MPKI: 17.7271
LLC LOAD      NON_SPEC    ACCESS:     267062  HIT:      11637  MISS:     255425  HIT %:    4.35742  MISS %:    95.6426   MPKI: 1.27712
LLC LOAD      SPEC        ACCESS:    4013787  HIT:     723801  MISS:    3289986  HIT %:    18.0329  MISS %:    81.9671   MPKI: 16.4499
LLC RFO       NON_SPEC    ACCESS:     395014  HIT:        449  MISS:     394565  HIT %:   0.113667  MISS %:    99.8863   MPKI: 1.97282
LLC PREFETCH  NON_SPEC    ACCESS:   40453888  HIT:     190462  MISS:   40263426  HIT %:   0.470813  MISS %:    99.5292   MPKI: 201.317
LLC WRITEBACK NON_SPEC    ACCESS:     472078  HIT:     471166  MISS:        912  HIT %:    99.8068  MISS %:   0.193188   MPKI: 0.00456
LLC CLEAN_EVICTION NON_SPEC    ACCESS:   14371869  HIT:   11449463  MISS:    2922406  HIT %:    79.6658  MISS %:    20.3342   MPKI: 14.612
LLC COMMIT LOAD NON_SPEC    ACCESS:     465861  HIT:     397979  MISS:      67882  HIT %:    85.4287  MISS %:    14.5713   MPKI: 0.33941
LLC LOAD TRANSLATION NON_SPEC    ACCESS:       5332  HIT:        559  MISS:       4773  HIT %:    10.4839  MISS %:    89.5161   MPKI: 0.023865
LLC PREFETCH  REQUESTED:          0  ISSUED:          0  USEFUL:     941816  USELESS:   39321835
LLC USEFUL LOAD PREFETCHES:     941816 PREFETCH ISSUED TO LOWER LEVEL:   40263505  ACCURACY: 2.33913
LLC TIMELY PREFETCHES:     941816 LATE PREFETCHES: 60 DROPPED PREFETCHES: 0
LLC COMMIT LATE PREFETCHES: 0 MISSED OPPORTUNITY: 0 LATE IN PQ: 0 UNCOVERED: 0
LLC COMMIT LATE MSHR PREFETCHES: 0
LLC MPKI TOTAL: 17.7271 MSHR LATE: 0.0003 PQ LATE: 0 COMMIT LATE: 0 MISSED OPPORTUNITY: 0 UNCOVERED: 0
LLC PREFETCHES SAME FILL-ORIGIN LEVEL: 11357 DIFFERENT FILL-ORIGIN LEVEL: 0
LLC AVERAGE MISS LATENCY: 294.125 cycles
LLC AVERAGE MISS LATENCY LOAD: 274.359 cycles
LLC AVERAGE MISS LATENCY PREFETCH: 317.133 cycles
LLC AVERAGE MSHR OCCUPANCY: 10.3539
LLC MSHR FULL: 0
LLC RQ	ACCESS:    5147055	FORWARD:          0	MERGED:          0	TO_CACHE:    5147055
LLC WQ	ACCESS:   14843949	FORWARD:          0	MERGED:          0	TO_CACHE:   14843949
LLC PQ	ACCESS:   40454736	FORWARD:          0	MERGED:         67	TO_CACHE:   40454669

LLC Dense regions hint to LLC: 0

RAW hits: 8335060
Loads Generated: 91532959
Loads sent to L1D: 83197894
Stores Generated: 13518700
Stores sent to L1D: 13518702
Major fault: 0 Minor fault: 17320
Allocated PAGES: 17320
Total Load insts: 103496332
Total Non-spec loads: 9151460
Percentage of speculative loads: 91.1577

LeapFrogging counter: 13481473
Commit hits: 40086760 miss: 34712780
Commit hit %: 53.5923 miss %: 46.4077
Commits not translated: 0
Loads retired: 32609237
Stores retired: 13518702
Cache fills: 32609243
L1D response latency: 120.093 cycles
Load retirement latency: 334.711 cycles
OOO test counter: 0
Discarded buffer inserts: 40086760 hits: 68542 hit %: 0.170984
Filter prediction accuracy: 90.687
------------------
Depth Distribution
------------------
depth 0: 526250
depth 1: 1229898
depth 2: 14490311
depth 3: 9928431
depth 4: 4608354
depth 5: 6422385
depth 6: 2107908
depth 7: 862298
depth 8: 36910
depth 9: 690
depth 10: 145
depth 11: 317
depth 12: 4
depth 13: 0
depth 14: 4
depth 15: 1
depth 16: 0
depth 17: 0
depth 18: 0
depth 19: 0
depth 20: 0
depth 21: 0
depth 22: 0
depth 23: 0
depth 24: 0
depth 25: 0
depth 26: 0
depth 27: 0
depth 28: 0
depth 29: 0
Total: 40213906
------------------
ST read accesses: 31812138
ST write accesses: 792320
PT read accesses: 718301159
PT write accesses: 46776287
FILTER read accesses: 220903476
FILTER write accesses: 159316217
GHR read accesses: 79291771
GHR write accesses: 12068120
PERC read accesses: 4746901824
PERC write accesses: 450955225
GHR counter read accesses: 65208916
GHR counter write accesses: 111621626
GHR ip read accesses: 228812574
GHR ip write accesses: 130417832
ST tag read accesses: 12943025436
ST tag write accesses: 270040671

DRAM Statistics
 CHANNEL 0
 RQ ROW_BUFFER_HIT:   27489208  ROW_BUFFER_MISS:   16786027
 DBUS_CONGESTED:       2220
 WQ ROW_BUFFER_HIT:    2471830  ROW_BUFFER_MISS:   12339622  FULL:          0

 AVG_CONGESTED_CYCLE: 4
 All warmup complete: 2
Channel 0 Bank busy for read cycles: 0
Channel 0 Bank busy for write cycles: 0
Channel 0
Rank 0
0banks busy for read cycles: 32483582
0banks busy for write cycles: 36176
1banks busy for read cycles: 34668585
1banks busy for write cycles: 5403826
2banks busy for read cycles: 42354140
2banks busy for write cycles: 4216242
3banks busy for read cycles: 50807191
3banks busy for write cycles: 3873046
4banks busy for read cycles: 61023834
4banks busy for write cycles: 3870583
5banks busy for read cycles: 75734967
5banks busy for write cycles: 4087794
6banks busy for read cycles: 97089102
6banks busy for write cycles: 5983103
7banks busy for read cycles: 131598714
7banks busy for write cycles: 39037703
8banks busy for read cycles: 215398744
8banks busy for write cycles: 286549071

CPU 0 Branch Prediction Accuracy: 98.8241% MPKI: 2.1554 Average ROB Occupancy at Mispredict: 69.1157
Branch types
NOT_BRANCH: 163339812 81.6699%
BRANCH_DIRECT_JUMP: 8413977 4.20699%
BRANCH_INDIRECT: 0 0%
BRANCH_CONDITIONAL: 28243014 14.1215%
BRANCH_DIRECT_CALL: 1578 0.000789%
BRANCH_INDIRECT_CALL: 0 0%
BRANCH_RETURN: 1578 0.000789%
BRANCH_OTHER: 0 0%

DRAM PAGES: 1048576
Allocated PAGES: 17320
