Initialize SIGNATURE TABLE
ST_SET: 1
ST_WAY: 256
ST_TAG_BIT: 16
ST_TAG_MASK: ffff

Initialize PATTERN TABLE
PT_SET: 512
PT_WAY: 4
SIG_DELTA_BIT: 7
C_SIG_BIT: 4
C_DELTA_BIT: 4

Initialize PREFETCH FILTER
FILTER_SET: 1024

Initialize PERCEPTRON
PERC_ENTRIES: 4096
PERC_FEATURES: 9

*** ChampSim Multicore Out-of-Order Simulator ***

Warmup Instructions: 50000000
Simulation Instructions: 200000000
Number of CPUs: 1
LLC sets: 2048
LLC ways: 16
L0D sets: 16
L0D ways: 2
ROB size: 352
LQ size: 128
SQ size: 72
Secure Berti: OFF
Berti: OFF
Berti Fill: OFF
On commit prefetching: OFF
Hit-based filter: ON
Time-guarding: ON
Free-slotting: ON
Leap-frogging: ON
Train prefetcher on L0D bypass: OFF
No translation penalty for prefetchers: OFF
Prefetch to L0D only: OFF
Prefetch to L1D only: OFF
Clean evictions: ON
Commit loads: ON
Commit write: ON
Fill commit loads to L2C, LLC: ON
DRAM IO FREQUENCY: 6400
ROB SIZE: 352
Off-chip DRAM Size: 4096 MB Channels: 1 Width: 64-bit Data Rate: 6400 MT/s
CPU 0 runs /home/sumon/secure_berti/GhostMinion/../../traces/spec/607.cactuBSSN_s-2421B.champsimtrace.xz
.xz
BTB has LRU replacement policy
ITLB has LRU replacement policy
DTLB has LRU replacement policy
STLB has LRU replacement policy
L1I has LRU replacement policy
L0D has LRU replacement policy
L1D has LRU replacement policy
PERC_ENTRIES: 4096
L2C has LRU replacement policy
LLC has LRU replacement policy
Heartbeat CPU 0 instructions: 10000002 cycles: 4422515 heartbeat IPC: 2.26116 cumulative IPC: 2.26116 (Simulation time: 0 hr 0 min 41 sec) 
Heartbeat CPU 0 instructions: 20000001 cycles: 8842419 heartbeat IPC: 2.26249 cumulative IPC: 2.26182 (Simulation time: 0 hr 1 min 21 sec) 
Heartbeat CPU 0 instructions: 30000002 cycles: 13274555 heartbeat IPC: 2.25625 cumulative IPC: 2.25996 (Simulation time: 0 hr 2 min 2 sec) 
Heartbeat CPU 0 instructions: 40000001 cycles: 17700881 heartbeat IPC: 2.25921 cumulative IPC: 2.25977 (Simulation time: 0 hr 2 min 44 sec) 
Heartbeat CPU 0 instructions: 50000003 cycles: 22122934 heartbeat IPC: 2.26139 cumulative IPC: 2.2601 (Simulation time: 0 hr 3 min 27 sec) 

Warmup complete CPU 0 instructions: 50000003 cycles: 22122934 (Simulation time: 0 hr 3 min 27 sec) 

Heartbeat CPU 0 instructions: 60000002 cycles: 34145927 heartbeat IPC: 0.83174 cumulative IPC: 0.83174 (Simulation time: 0 hr 4 min 12 sec) 
Heartbeat CPU 0 instructions: 70000001 cycles: 44811607 heartbeat IPC: 0.937587 cumulative IPC: 0.881497 (Simulation time: 0 hr 4 min 55 sec) 
Heartbeat CPU 0 instructions: 80000001 cycles: 55215566 heartbeat IPC: 0.961173 cumulative IPC: 0.906546 (Simulation time: 0 hr 5 min 38 sec) 
Heartbeat CPU 0 instructions: 90000000 cycles: 65925342 heartbeat IPC: 0.933726 cumulative IPC: 0.913192 (Simulation time: 0 hr 6 min 22 sec) 
Heartbeat CPU 0 instructions: 100000000 cycles: 76543360 heartbeat IPC: 0.941795 cumulative IPC: 0.918773 (Simulation time: 0 hr 7 min 7 sec) 
Heartbeat CPU 0 instructions: 110000000 cycles: 87244966 heartbeat IPC: 0.934439 cumulative IPC: 0.921347 (Simulation time: 0 hr 7 min 51 sec) 
Heartbeat CPU 0 instructions: 120000000 cycles: 97980148 heartbeat IPC: 0.931517 cumulative IPC: 0.922786 (Simulation time: 0 hr 8 min 36 sec) 
Heartbeat CPU 0 instructions: 130000002 cycles: 108717973 heartbeat IPC: 0.931287 cumulative IPC: 0.92384 (Simulation time: 0 hr 9 min 22 sec) 
Heartbeat CPU 0 instructions: 140000000 cycles: 119506582 heartbeat IPC: 0.926903 cumulative IPC: 0.92418 (Simulation time: 0 hr 10 min 8 sec) 
Heartbeat CPU 0 instructions: 150000001 cycles: 130152374 heartbeat IPC: 0.939338 cumulative IPC: 0.925674 (Simulation time: 0 hr 10 min 53 sec) 
Heartbeat CPU 0 instructions: 160000002 cycles: 140754876 heartbeat IPC: 0.943174 cumulative IPC: 0.927238 (Simulation time: 0 hr 11 min 39 sec) 
Heartbeat CPU 0 instructions: 170000002 cycles: 151417179 heartbeat IPC: 0.937884 cumulative IPC: 0.928116 (Simulation time: 0 hr 12 min 24 sec) 
Heartbeat CPU 0 instructions: 180000001 cycles: 162095211 heartbeat IPC: 0.936502 cumulative IPC: 0.928755 (Simulation time: 0 hr 13 min 7 sec) 
Heartbeat CPU 0 instructions: 190000000 cycles: 172750288 heartbeat IPC: 0.93852 cumulative IPC: 0.929446 (Simulation time: 0 hr 13 min 49 sec) 
Heartbeat CPU 0 instructions: 200000001 cycles: 183371391 heartbeat IPC: 0.941522 cumulative IPC: 0.930241 (Simulation time: 0 hr 14 min 30 sec) 
Heartbeat CPU 0 instructions: 210000003 cycles: 193999123 heartbeat IPC: 0.940935 cumulative IPC: 0.930903 (Simulation time: 0 hr 15 min 10 sec) 
Heartbeat CPU 0 instructions: 220000000 cycles: 204517182 heartbeat IPC: 0.950745 cumulative IPC: 0.932047 (Simulation time: 0 hr 15 min 48 sec) 
Heartbeat CPU 0 instructions: 230000003 cycles: 215066158 heartbeat IPC: 0.94796 cumulative IPC: 0.932917 (Simulation time: 0 hr 16 min 24 sec) 
Heartbeat CPU 0 instructions: 240000000 cycles: 225859246 heartbeat IPC: 0.926519 cumulative IPC: 0.932578 (Simulation time: 0 hr 16 min 59 sec) 
Heartbeat CPU 0 instructions: 250000002 cycles: 236457800 heartbeat IPC: 0.943525 cumulative IPC: 0.933119 (Simulation time: 0 hr 17 min 34 sec) 
Finished CPU 0 instructions: 200000003 cycles: 214334867 cumulative IPC: 0.933119 (Simulation time: 0 hr 17 min 34 sec) 
 Instruction ID: 250000065

ChampSim completed all CPUs

Region of Interest Statistics

CPU 0 cumulative IPC: 0.933119 instructions: 200000003 cycles: 214334867
ITLB SPEC fills:          0  NON-SPEC fills:          0
ITLB Test counter :          0
ITLB Leapfrog:          0
ITLB MSHR merge:          0
ITLB TOTAL     ACCESS:   26472473  HIT:   26472423  MISS:         50  HIT %:    99.9998  MISS %: 0.000188875   MPKI: 0.00025
ITLB LOAD TRANSLATION NON_SPEC    ACCESS:   26472473  HIT:   26472423  MISS:         50  HIT %:    99.9998  MISS %: 0.000188875   MPKI: 0.00025
ITLB PREFETCH  REQUESTED:          0  ISSUED:          0  USEFUL:          0  USELESS:          0
ITLB USEFUL LOAD PREFETCHES:          0 PREFETCH ISSUED TO LOWER LEVEL:          0  ACCURACY: -nan
ITLB TIMELY PREFETCHES:          0 LATE PREFETCHES: 0 DROPPED PREFETCHES: 0
ITLB COMMIT LATE PREFETCHES: 0 MISSED OPPORTUNITY: 0 LATE IN PQ: 0 UNCOVERED: 0
ITLB COMMIT LATE MSHR PREFETCHES: 0
ITLB MPKI TOTAL: 0 MSHR LATE: 0 PQ LATE: 0 COMMIT LATE: 0 MISSED OPPORTUNITY: 0 UNCOVERED: 0
ITLB PREFETCHES SAME FILL-ORIGIN LEVEL: 0 DIFFERENT FILL-ORIGIN LEVEL: 0
ITLB AVERAGE MISS LATENCY: 453.08 cycles
ITLB AVERAGE MISS LATENCY LOAD: -nan cycles
ITLB AVERAGE MISS LATENCY PREFETCH: -nan cycles
ITLB AVERAGE MSHR OCCUPANCY: 3.39976e-07
ITLB MSHR FULL: 0
ITLB RQ	ACCESS:   34820652	FORWARD:          0	MERGED:    8348171	TO_CACHE:   26472481

DTLB SPEC fills:          0  NON-SPEC fills:          0
DTLB Test counter :          0
DTLB Leapfrog:          0
DTLB MSHR merge:          0
DTLB TOTAL     ACCESS:   44773846  HIT:   29766440  MISS:   15007406  HIT %:    66.4818  MISS %:    33.5182   MPKI: 75.037
DTLB LOAD TRANSLATION NON_SPEC    ACCESS:   44773846  HIT:   29766440  MISS:   15007406  HIT %:    66.4818  MISS %:    33.5182   MPKI: 75.037
DTLB PREFETCH  REQUESTED:          0  ISSUED:          0  USEFUL:          0  USELESS:          0
DTLB USEFUL LOAD PREFETCHES:          0 PREFETCH ISSUED TO LOWER LEVEL:          0  ACCURACY: -nan
DTLB TIMELY PREFETCHES:          0 LATE PREFETCHES: 0 DROPPED PREFETCHES: 0
DTLB COMMIT LATE PREFETCHES: 0 MISSED OPPORTUNITY: 0 LATE IN PQ: 0 UNCOVERED: 0
DTLB COMMIT LATE MSHR PREFETCHES: 0
DTLB MPKI TOTAL: 0 MSHR LATE: 0 PQ LATE: 0 COMMIT LATE: 0 MISSED OPPORTUNITY: 0 UNCOVERED: 0
DTLB PREFETCHES SAME FILL-ORIGIN LEVEL: 0 DIFFERENT FILL-ORIGIN LEVEL: 0
DTLB AVERAGE MISS LATENCY: 10.0291 cycles
DTLB AVERAGE MISS LATENCY LOAD: -nan cycles
DTLB AVERAGE MISS LATENCY PREFETCH: -nan cycles
DTLB AVERAGE MSHR OCCUPANCY: 1.08951
DTLB MSHR FULL: 0.0375629
DTLB RQ	ACCESS:   63336617	FORWARD:          0	MERGED:   17531350	TO_CACHE:   45805267

STLB SPEC fills:          0  NON-SPEC fills:          0
STLB Test counter :          0
STLB Leapfrog:          0
STLB MSHR merge:          0
STLB TOTAL     ACCESS:   15007456  HIT:   14982904  MISS:      24552  HIT %:    99.8364  MISS %:   0.163599   MPKI: 0.12276
STLB LOAD TRANSLATION NON_SPEC    ACCESS:   15007456  HIT:   14982904  MISS:      24552  HIT %:    99.8364  MISS %:   0.163599   MPKI: 0.12276
STLB PREFETCH  REQUESTED:          0  ISSUED:          0  USEFUL:          0  USELESS:          0
STLB USEFUL LOAD PREFETCHES:          0 PREFETCH ISSUED TO LOWER LEVEL:          0  ACCURACY: -nan
STLB TIMELY PREFETCHES:          0 LATE PREFETCHES: 0 DROPPED PREFETCHES: 0
STLB COMMIT LATE PREFETCHES: 0 MISSED OPPORTUNITY: 0 LATE IN PQ: 0 UNCOVERED: 0
STLB COMMIT LATE MSHR PREFETCHES: 0
STLB MPKI TOTAL: 0 MSHR LATE: 0 PQ LATE: 0 COMMIT LATE: 0 MISSED OPPORTUNITY: 0 UNCOVERED: 0
STLB PREFETCHES SAME FILL-ORIGIN LEVEL: 0 DIFFERENT FILL-ORIGIN LEVEL: 0
STLB AVERAGE MISS LATENCY: 439.066 cycles
STLB AVERAGE MISS LATENCY LOAD: -nan cycles
STLB AVERAGE MISS LATENCY PREFETCH: -nan cycles
STLB AVERAGE MSHR OCCUPANCY: 0.0116487
STLB MSHR FULL: 0
STLB RQ	ACCESS:   15007457	FORWARD:          0	MERGED:          0	TO_CACHE:   15007457

STLB Hit, L1D data hit: 0
STLB Hit, L2C data hit: 0
STLB Hit, LLC data hit: 0
STLB Hit, LLC data miss: 0
STLB STLB hints to L2: 0
L0D SPEC fills:   31865327  NON-SPEC fills:          0
L0D TimeGuard Request with older TS:     451867 Restricted eviction:    1035444 read:     121323
L0D Test counter :          0
L0D Leapfrog:          0
L0D MSHR merge:    2743468
L0D TOTAL     ACCESS:   37808042  HIT:    3845993  MISS:   33962049  HIT %:    10.1724  MISS %:    89.8276   MPKI: 169.81
L0D LOAD      TOTAL       ACCESS:   37808042  HIT:    3845993  MISS:   33962049  HIT %:    10.1724  MISS %:    89.8276   MPKI: 169.81
L0D LOAD      NON_SPEC    ACCESS:    1118728  HIT:      57448  MISS:    1061280  HIT %:    5.13512  MISS %:    94.8649   MPKI: 5.3064
L0D LOAD      SPEC        ACCESS:   36689314  HIT:    3788545  MISS:   32900769  HIT %:     10.326  MISS %:     89.674   MPKI: 164.504
L0D PREFETCH  REQUESTED:          0  ISSUED:          0  USEFUL:          0  USELESS:          0
L0D USEFUL LOAD PREFETCHES:          0 PREFETCH ISSUED TO LOWER LEVEL:          0  ACCURACY: -nan
L0D TIMELY PREFETCHES:          0 LATE PREFETCHES: 0 DROPPED PREFETCHES: 0
L0D COMMIT LATE PREFETCHES: 0 MISSED OPPORTUNITY: 0 LATE IN PQ: 0 UNCOVERED: 0
L0D COMMIT LATE MSHR PREFETCHES: 0
L0D MPKI TOTAL: 183.528 MSHR LATE: 0 PQ LATE: 0 COMMIT LATE: 0 MISSED OPPORTUNITY: 0 UNCOVERED: 0
L0D PREFETCHES SAME FILL-ORIGIN LEVEL: 0 DIFFERENT FILL-ORIGIN LEVEL: 0
L0D AVERAGE MISS LATENCY: 13.7286 cycles
L0D AVERAGE MISS LATENCY LOAD: 13.7286 cycles
L0D AVERAGE MISS LATENCY PREFETCH: -nan cycles
L0D AVERAGE MSHR OCCUPANCY: 3.05341
L0D MSHR FULL: 0.160792
L0D RQ	ACCESS:   57220753	FORWARD:          0	MERGED:   16669250	TO_CACHE:   40551503
L0D WQ	ACCESS:   22785114	FORWARD:          0	MERGED:          0	TO_CACHE:   22785114

L1D SPEC fills:          0  NON-SPEC fills:     405955
L1D Test counter :          0
L1D Leapfrog:          0
L1D MSHR merge:      54684
L1D TOTAL     ACCESS:   80067158  HIT:   35947604  MISS:   44119554  HIT %:    44.8968  MISS %:    55.1032   MPKI: 220.598
L1D LOAD      TOTAL       ACCESS:   33907362  HIT:   12436548  MISS:   21470814  HIT %:     36.678  MISS %:     63.322   MPKI: 107.354
L1D LOAD      NON_SPEC    ACCESS:    1058701  HIT:     652746  MISS:     405955  HIT %:    61.6554  MISS %:    38.3446   MPKI: 2.02977
L1D LOAD      SPEC        ACCESS:   32848661  HIT:   11783802  MISS:   21064859  HIT %:     35.873  MISS %:     64.127   MPKI: 105.324
L1D RFO       NON_SPEC    ACCESS:   22605073  HIT:   20990981  MISS:    1614092  HIT %:    92.8596  MISS %:     7.1404   MPKI: 8.07046
L1D COMMIT LOAD NON_SPEC    ACCESS:    3105580  HIT:    2470525  MISS:     635055  HIT %:    79.5512  MISS %:    20.4488   MPKI: 3.17527
L1D COMMIT WRITE NON_SPEC    ACCESS:   20449143  HIT:      49550  MISS:   20399593  HIT %:   0.242308  MISS %:    99.7577   MPKI: 101.998
L1D PREFETCH  REQUESTED:          0  ISSUED:          0  USEFUL:          0  USELESS:          0
L1D USEFUL LOAD PREFETCHES:          0 PREFETCH ISSUED TO LOWER LEVEL:          0  ACCURACY: -nan
L1D TIMELY PREFETCHES:          0 LATE PREFETCHES: 0 DROPPED PREFETCHES: 0
L1D COMMIT LATE PREFETCHES: 0 MISSED OPPORTUNITY: 0 LATE IN PQ: 0 UNCOVERED: 0
L1D COMMIT LATE MSHR PREFETCHES: 0
L1D MPKI TOTAL: 107.627 MSHR LATE: 0 PQ LATE: 0 COMMIT LATE: 0 MISSED OPPORTUNITY: 0 UNCOVERED: 0
L1D PREFETCHES SAME FILL-ORIGIN LEVEL: 0 DIFFERENT FILL-ORIGIN LEVEL: 0
L1D AVERAGE MISS LATENCY: 6.92287 cycles
L1D AVERAGE MISS LATENCY LOAD: 12.4831 cycles
L1D AVERAGE MISS LATENCY PREFETCH: -nan cycles
L1D AVERAGE MSHR OCCUPANCY: 1.62491
L1D MSHR FULL: 0.00245935
L1D RQ	ACCESS:   42562283	FORWARD:          0	MERGED:    5479586	TO_CACHE:   37082694
L1D WQ	ACCESS:   43234256	FORWARD:          3	MERGED:      31194	TO_CACHE:   43203062

L1D UNIQUE REGIONS ACCESSED: 0
L1D REGIONS CONFLICTS: 0
L1D Cross Page Prefetch Requests: 0
L1D Same Page Prefetch Requests: 0
L1D ROI Sum of L1D PQ occupancy: 0
L1D PREFETCHES PUSHED FROM L2C: 0
L1I SPEC fills:          0  NON-SPEC fills:          0
L1I Test counter :          0
L1I Leapfrog:          0
L1I MSHR merge:      24764
L1I TOTAL     ACCESS:   34795889  HIT:   34746232  MISS:      49657  HIT %:    99.8573  MISS %:   0.142709   MPKI: 0.248285
L1I LOAD      TOTAL       ACCESS:   34795889  HIT:   34746232  MISS:      49657  HIT %:    99.8573  MISS %:   0.142709   MPKI: 0.248285
L1I LOAD      NON_SPEC    ACCESS:   34795889  HIT:   34746232  MISS:      49657  HIT %:    99.8573  MISS %:   0.142709   MPKI: 0.248285
L1I PREFETCH  REQUESTED:          0  ISSUED:          0  USEFUL:          0  USELESS:          0
L1I USEFUL LOAD PREFETCHES:          0 PREFETCH ISSUED TO LOWER LEVEL:          0  ACCURACY: -nan
L1I TIMELY PREFETCHES:          0 LATE PREFETCHES: 0 DROPPED PREFETCHES: 0
L1I COMMIT LATE PREFETCHES: 0 MISSED OPPORTUNITY: 0 LATE IN PQ: 0 UNCOVERED: 0
L1I COMMIT LATE MSHR PREFETCHES: 0
L1I MPKI TOTAL: 0.372105 MSHR LATE: 0 PQ LATE: 0 COMMIT LATE: 0 MISSED OPPORTUNITY: 0 UNCOVERED: 0
L1I PREFETCHES SAME FILL-ORIGIN LEVEL: 0 DIFFERENT FILL-ORIGIN LEVEL: 0
L1I AVERAGE MISS LATENCY: 17.3604 cycles
L1I AVERAGE MISS LATENCY LOAD: 17.3604 cycles
L1I AVERAGE MISS LATENCY PREFETCH: -nan cycles
L1I AVERAGE MSHR OCCUPANCY: 0.00193793
L1I MSHR FULL: 0
L1I RQ	ACCESS:   51196879	FORWARD:          0	MERGED:   16376227	TO_CACHE:   34820652

BTB SPEC fills:          0  NON-SPEC fills:          0
BTB Test counter :          0
BTB Leapfrog:          0
BTB MSHR merge:          0
BTB TOTAL     ACCESS:     207305  HIT:     204093  MISS:       3212  HIT %:    98.4506  MISS %:    1.54941   MPKI: 0.01606
BTB BRANCH_DIRECT_JUMP	ACCESS:      61458  HIT:      61423  MISS:         35
BTB BRANCH_INDIRECT	ACCESS:      58898  HIT:      58820  MISS:         78
BTB BRANCH_CONDITIONAL	ACCESS:      74915  HIT:      74516  MISS:        399
BTB BRANCH_DIRECT_CALL	ACCESS:       6013  HIT:       5388  MISS:        625
BTB BRANCH_INDIRECT_CALL	ACCESS:          3  HIT:          0  MISS:          3
BTB BRANCH_RETURN	ACCESS:       6018  HIT:       3946  MISS:       2072
BTB BRANCH_OTHER ACCESS:          0  HIT:          0  MISS:          0

L2C SPEC fills:          0  NON-SPEC fills:       3735
L2C Test counter :          0
L2C Leapfrog:          0
L2C MSHR merge:       8934
L2C TOTAL     ACCESS:   35797018  HIT:   32787692  MISS:    3009326  HIT %:    91.5934  MISS %:    8.40664   MPKI: 15.0466
L2C LOAD      TOTAL       ACCESS:   21158085  HIT:   20956538  MISS:     201547  HIT %:    99.0474  MISS %:   0.952577   MPKI: 1.00773
L2C LOAD      NON_SPEC    ACCESS:     429460  HIT:     424877  MISS:       4583  HIT %:    98.9328  MISS %:    1.06715   MPKI: 0.022915
L2C LOAD      SPEC        ACCESS:   20728625  HIT:   20531661  MISS:     196964  HIT %:    99.0498  MISS %:   0.950203   MPKI: 0.98482
L2C RFO       NON_SPEC    ACCESS:    1609900  HIT:    1607841  MISS:       2059  HIT %:    99.8721  MISS %:   0.127896   MPKI: 0.010295
L2C PREFETCH  NON_SPEC    ACCESS:   10147630  HIT:    7566173  MISS:    2581457  HIT %:     74.561  MISS %:     25.439   MPKI: 12.9073
L2C WRITEBACK NON_SPEC    ACCESS:    1617106  HIT:    1617019  MISS:         87  HIT %:    99.9946  MISS %: 0.00537998   MPKI: 0.000435
L2C CLEAN_EVICTION NON_SPEC    ACCESS:     507885  HIT:     324856  MISS:     183029  HIT %:    63.9625  MISS %:    36.0375   MPKI: 0.915145
L2C COMMIT LOAD NON_SPEC    ACCESS:     633725  HIT:     623987  MISS:       9738  HIT %:    98.4634  MISS %:    1.53663   MPKI: 0.04869
L2C LOAD TRANSLATION NON_SPEC    ACCESS:     122687  HIT:      91278  MISS:      31409  HIT %:    74.3991  MISS %:    25.6009   MPKI: 0.157045
L2C PREFETCH  REQUESTED:   11704865  ISSUED:   11696690  USEFUL:    1983099  USELESS:     598949
L2C USEFUL LOAD PREFETCHES:    1983099 PREFETCH ISSUED TO LOWER LEVEL:    4000255  ACCURACY: 49.5743
L2C TIMELY PREFETCHES:    1983099 LATE PREFETCHES: 8977 DROPPED PREFETCHES: 0
L2C COMMIT LATE PREFETCHES: 0 MISSED OPPORTUNITY: 0 LATE IN PQ: 0 UNCOVERED: 0
L2C COMMIT LATE MSHR PREFETCHES: 0
L2C MPKI TOTAL: 1.00773 MSHR LATE: 0.044885 PQ LATE: 0 COMMIT LATE: 0 MISSED OPPORTUNITY: 0 UNCOVERED: 0
L2C PREFETCHES SAME FILL-ORIGIN LEVEL: 2590434 DIFFERENT FILL-ORIGIN LEVEL: 1409821
L2C AVERAGE MISS LATENCY: 145.461 cycles
L2C AVERAGE MISS LATENCY LOAD: 146.493 cycles
L2C AVERAGE MISS LATENCY PREFETCH: 156.363 cycles
L2C AVERAGE MSHR OCCUPANCY: 1.9995
L2C MSHR FULL: 0.00225889
L2C RQ	ACCESS:   23892306	FORWARD:          0	MERGED:          0	TO_CACHE:   23524397
L2C WQ	ACCESS:    2125016	FORWARD:     368404	MERGED:         24	TO_CACHE:    2124992
L2C PQ	ACCESS:   11696690	FORWARD:          0	MERGED:      74512	TO_CACHE:   11621683

L2C Instructions Evicting Data 841
L2C Translations Evicting Data 30541
L2C Data Evicting Data 2567523
L2C Instructions Evicting Instructions 1
L2C Translations Evicting Instructions 3
L2C Data Evicting Instructions 895
L2C Instructions Evicting Translations 6
L2C Translations Evicting Translations 865
L2C Data Evicting Translations 28571
L2C Dense regions hint from L2: 0
PSCL5 SPEC fills:          0  NON-SPEC fills:          0
PSCL5 Test counter :          0
PSCL5 Leapfrog:          0
PSCL5 MSHR merge:          0
PSCL5 TOTAL     ACCESS:          0  HIT:          0  MISS:          0  HIT %:       -nan  MISS %:       -nan   MPKI: 0
PSCL5 PREFETCH  REQUESTED:          0  ISSUED:          0  USEFUL:          0  USELESS:          0
PSCL5 USEFUL LOAD PREFETCHES:          0 PREFETCH ISSUED TO LOWER LEVEL:          0  ACCURACY: -nan
PSCL5 TIMELY PREFETCHES:          0 LATE PREFETCHES: 0 DROPPED PREFETCHES: 0
PSCL5 COMMIT LATE PREFETCHES: 0 MISSED OPPORTUNITY: 0 LATE IN PQ: 0 UNCOVERED: 0
PSCL5 COMMIT LATE MSHR PREFETCHES: 0
PSCL5 MPKI TOTAL: 0 MSHR LATE: 0 PQ LATE: 0 COMMIT LATE: 0 MISSED OPPORTUNITY: 0 UNCOVERED: 0
PSCL5 PREFETCHES SAME FILL-ORIGIN LEVEL: 0 DIFFERENT FILL-ORIGIN LEVEL: 0

PSCL4 SPEC fills:          0  NON-SPEC fills:          0
PSCL4 Test counter :          0
PSCL4 Leapfrog:          0
PSCL4 MSHR merge:          0
PSCL4 TOTAL     ACCESS:          0  HIT:          0  MISS:          0  HIT %:       -nan  MISS %:       -nan   MPKI: 0
PSCL4 PREFETCH  REQUESTED:          0  ISSUED:          0  USEFUL:          0  USELESS:          0
PSCL4 USEFUL LOAD PREFETCHES:          0 PREFETCH ISSUED TO LOWER LEVEL:          0  ACCURACY: -nan
PSCL4 TIMELY PREFETCHES:          0 LATE PREFETCHES: 0 DROPPED PREFETCHES: 0
PSCL4 COMMIT LATE PREFETCHES: 0 MISSED OPPORTUNITY: 0 LATE IN PQ: 0 UNCOVERED: 0
PSCL4 COMMIT LATE MSHR PREFETCHES: 0
PSCL4 MPKI TOTAL: 0 MSHR LATE: 0 PQ LATE: 0 COMMIT LATE: 0 MISSED OPPORTUNITY: 0 UNCOVERED: 0
PSCL4 PREFETCHES SAME FILL-ORIGIN LEVEL: 0 DIFFERENT FILL-ORIGIN LEVEL: 0

PSCL3 SPEC fills:          0  NON-SPEC fills:          0
PSCL3 Test counter :          0
PSCL3 Leapfrog:          0
PSCL3 MSHR merge:          0
PSCL3 TOTAL     ACCESS:          0  HIT:          0  MISS:          0  HIT %:       -nan  MISS %:       -nan   MPKI: 0
PSCL3 PREFETCH  REQUESTED:          0  ISSUED:          0  USEFUL:          0  USELESS:          0
PSCL3 USEFUL LOAD PREFETCHES:          0 PREFETCH ISSUED TO LOWER LEVEL:          0  ACCURACY: -nan
PSCL3 TIMELY PREFETCHES:          0 LATE PREFETCHES: 0 DROPPED PREFETCHES: 0
PSCL3 COMMIT LATE PREFETCHES: 0 MISSED OPPORTUNITY: 0 LATE IN PQ: 0 UNCOVERED: 0
PSCL3 COMMIT LATE MSHR PREFETCHES: 0
PSCL3 MPKI TOTAL: 0 MSHR LATE: 0 PQ LATE: 0 COMMIT LATE: 0 MISSED OPPORTUNITY: 0 UNCOVERED: 0
PSCL3 PREFETCHES SAME FILL-ORIGIN LEVEL: 0 DIFFERENT FILL-ORIGIN LEVEL: 0

PSCL2 SPEC fills:          0  NON-SPEC fills:          0
PSCL2 Test counter :          0
PSCL2 Leapfrog:          0
PSCL2 MSHR merge:          0
PSCL2 TOTAL     ACCESS:          0  HIT:          0  MISS:          0  HIT %:       -nan  MISS %:       -nan   MPKI: 0
PSCL2 PREFETCH  REQUESTED:          0  ISSUED:          0  USEFUL:          0  USELESS:          0
PSCL2 USEFUL LOAD PREFETCHES:          0 PREFETCH ISSUED TO LOWER LEVEL:          0  ACCURACY: -nan
PSCL2 TIMELY PREFETCHES:          0 LATE PREFETCHES: 0 DROPPED PREFETCHES: 0
PSCL2 COMMIT LATE PREFETCHES: 0 MISSED OPPORTUNITY: 0 LATE IN PQ: 0 UNCOVERED: 0
PSCL2 COMMIT LATE MSHR PREFETCHES: 0
PSCL2 MPKI TOTAL: 0 MSHR LATE: 0 PQ LATE: 0 COMMIT LATE: 0 MISSED OPPORTUNITY: 0 UNCOVERED: 0
PSCL2 PREFETCHES SAME FILL-ORIGIN LEVEL: 0 DIFFERENT FILL-ORIGIN LEVEL: 0

LLC SPEC fills:          0  NON-SPEC fills:       1865
LLC Test counter :          0
LLC Leapfrog:          0
LLC MSHR merge:          0
LLC TOTAL     ACCESS:    4602136  HIT:    2944862  MISS:    1657274  HIT %:     63.989  MISS %:     36.011   MPKI: 8.28637
LLC LOAD      TOTAL       ACCESS:     192555  HIT:      80529  MISS:     112026  HIT %:    41.8213  MISS %:    58.1787   MPKI: 0.56013
LLC LOAD      NON_SPEC    ACCESS:       4279  HIT:       1583  MISS:       2696  HIT %:    36.9946  MISS %:    63.0054   MPKI: 0.01348
LLC LOAD      SPEC        ACCESS:     188276  HIT:      78946  MISS:     109330  HIT %:     41.931  MISS %:     58.069   MPKI: 0.54665
LLC RFO       NON_SPEC    ACCESS:       1948  HIT:        845  MISS:       1103  HIT %:    43.3778  MISS %:    56.6222   MPKI: 0.005515
LLC PREFETCH  NON_SPEC    ACCESS:    4000140  HIT:    2570147  MISS:    1429993  HIT %:    64.2514  MISS %:    35.7486   MPKI: 7.14996
LLC WRITEBACK NON_SPEC    ACCESS:     175542  HIT:     175443  MISS:         99  HIT %:    99.9436  MISS %:  0.0563968   MPKI: 0.000495
LLC CLEAN_EVICTION NON_SPEC    ACCESS:     190848  HIT:      85969  MISS:     104879  HIT %:    45.0458  MISS %:    54.9542   MPKI: 0.524395
LLC COMMIT LOAD NON_SPEC    ACCESS:       9694  HIT:       4173  MISS:       5521  HIT %:    43.0472  MISS %:    56.9528   MPKI: 0.027605
LLC LOAD TRANSLATION NON_SPEC    ACCESS:      31409  HIT:      27756  MISS:       3653  HIT %:    88.3696  MISS %:    11.6304   MPKI: 0.018265
LLC PREFETCH  REQUESTED:          0  ISSUED:          0  USEFUL:      53300  USELESS:    1368813
LLC USEFUL LOAD PREFETCHES:      53300 PREFETCH ISSUED TO LOWER LEVEL:    1429993  ACCURACY: 3.72729
LLC TIMELY PREFETCHES:      53300 LATE PREFETCHES: 0 DROPPED PREFETCHES: 0
LLC COMMIT LATE PREFETCHES: 0 MISSED OPPORTUNITY: 0 LATE IN PQ: 0 UNCOVERED: 0
LLC COMMIT LATE MSHR PREFETCHES: 0
LLC MPKI TOTAL: 0.56013 MSHR LATE: 0 PQ LATE: 0 COMMIT LATE: 0 MISSED OPPORTUNITY: 0 UNCOVERED: 0
LLC PREFETCHES SAME FILL-ORIGIN LEVEL: 304811 DIFFERENT FILL-ORIGIN LEVEL: 0
LLC AVERAGE MISS LATENCY: 264.386 cycles
LLC AVERAGE MISS LATENCY LOAD: 222.815 cycles
LLC AVERAGE MISS LATENCY PREFETCH: 286.667 cycles
LLC AVERAGE MSHR OCCUPANCY: 6.93879
LLC MSHR FULL: 0
LLC RQ	ACCESS:     235776	FORWARD:          0	MERGED:          0	TO_CACHE:     235606
LLC WQ	ACCESS:     366390	FORWARD:        258	MERGED:          0	TO_CACHE:     366390
LLC PQ	ACCESS:    4000255	FORWARD:          0	MERGED:          6	TO_CACHE:    4000161

LLC Dense regions hint to LLC: 0

RAW hits: 71002
Loads Generated: 57291759
Loads sent to L1D: 57220753
Stores Generated: 22785115
Stores sent to L1D: 22785114
Major fault: 0 Minor fault: 17275
Allocated PAGES: 17275
Total Load insts: 86232772
Total Non-spec loads: 2197193
Percentage of speculative loads: 97.452

LeapFrogging counter: 2982052
Commit hits: 31466786 miss: 24563146
Commit hit %: 56.1607 miss %: 43.8393
Commits not translated: 0
Loads retired: 21470813
Stores retired: 22785114
Cache fills: 21470814
L1D response latency: 12.4831 cycles
Load retirement latency: 48.2198 cycles
OOO test counter: 0
Discarded buffer inserts: 31466786 hits: 914305 hit %: 2.90562
Filter prediction accuracy: 98.7237
------------------
Depth Distribution
------------------
depth 0: 3947419
depth 1: 864922
depth 2: 5816776
depth 3: 10130114
depth 4: 3806010
depth 5: 151811
depth 6: 26
depth 7: 0
depth 8: 0
depth 9: 0
depth 10: 0
depth 11: 0
depth 12: 0
depth 13: 0
depth 14: 0
depth 15: 0
depth 16: 0
depth 17: 0
depth 18: 0
depth 19: 0
depth 20: 0
depth 21: 0
depth 22: 0
depth 23: 0
depth 24: 0
depth 25: 0
depth 26: 0
depth 27: 0
depth 28: 0
depth 29: 0
Total: 24717078
------------------
ST read accesses: 21014688
ST write accesses: 93740
PT read accesses: 367253842
PT write accesses: 18005894
FILTER read accesses: 92578788
FILTER write accesses: 27140459
GHR read accesses: 119152041
GHR write accesses: 17257514
PERC read accesses: 2624633640
PERC write accesses: 64117725
GHR counter read accesses: 42216856
GHR counter write accesses: 35805380
GHR ip read accesses: 116195349
GHR ip write accesses: 84433712
ST tag read accesses: 8167584203
ST tag write accesses: 3205208944

DRAM Statistics
 CHANNEL 0
 RQ ROW_BUFFER_HIT:     821115  ROW_BUFFER_MISS:     731177
 DBUS_CONGESTED:       1076
 WQ ROW_BUFFER_HIT:     106767  ROW_BUFFER_MISS:     238237  FULL:          0

 AVG_CONGESTED_CYCLE: 4
 All warmup complete: 2
Channel 0 Bank busy for read cycles: 0
Channel 0 Bank busy for write cycles: 0
Channel 0
Rank 0
0banks busy for read cycles: 150133632
0banks busy for write cycles: 63249
1banks busy for read cycles: 13052143
1banks busy for write cycles: 8000801
2banks busy for read cycles: 6951979
2banks busy for write cycles: 3015979
3banks busy for read cycles: 6284659
3banks busy for write cycles: 1824838
4banks busy for read cycles: 5926523
4banks busy for write cycles: 1348593
5banks busy for read cycles: 5788014
5banks busy for write cycles: 1094708
6banks busy for read cycles: 4740000
6banks busy for write cycles: 1012364
7banks busy for read cycles: 2613691
7banks busy for write cycles: 1023584
8banks busy for read cycles: 714669
8banks busy for write cycles: 745442

CPU 0 Branch Prediction Accuracy: 99.5304% MPKI: 0.00654 Average ROB Occupancy at Mispredict: 30.432
Branch types
NOT_BRANCH: 199721154 99.8606%
BRANCH_DIRECT_JUMP: 61458 0.030729%
BRANCH_INDIRECT: 58898 0.029449%
BRANCH_CONDITIONAL: 146150 0.073075%
BRANCH_DIRECT_CALL: 6013 0.0030065%
BRANCH_INDIRECT_CALL: 3 1.5e-06%
BRANCH_RETURN: 6018 0.003009%
BRANCH_OTHER: 0 0%

DRAM PAGES: 1048576
Allocated PAGES: 17275
