Initialize SIGNATURE TABLE
ST_SET: 1
ST_WAY: 256
ST_TAG_BIT: 16
ST_TAG_MASK: ffff

Initialize PATTERN TABLE
PT_SET: 512
PT_WAY: 4
SIG_DELTA_BIT: 7
C_SIG_BIT: 4
C_DELTA_BIT: 4

Initialize PREFETCH FILTER
FILTER_SET: 1024

Initialize PERCEPTRON
PERC_ENTRIES: 4096
PERC_FEATURES: 9

*** ChampSim Multicore Out-of-Order Simulator ***

Warmup Instructions: 50000000
Simulation Instructions: 200000000
Number of CPUs: 1
LLC sets: 2048
LLC ways: 16
L0D sets: 16
L0D ways: 2
ROB size: 352
LQ size: 128
SQ size: 72
Secure Berti: OFF
Berti: OFF
Berti Fill: OFF
On commit prefetching: OFF
Hit-based filter: ON
Time-guarding: ON
Free-slotting: ON
Leap-frogging: ON
Train prefetcher on L0D bypass: OFF
No translation penalty for prefetchers: OFF
Prefetch to L0D only: OFF
Prefetch to L1D only: OFF
Clean evictions: ON
Commit loads: ON
Commit write: ON
Fill commit loads to L2C, LLC: ON
DRAM IO FREQUENCY: 6400
ROB SIZE: 352
Off-chip DRAM Size: 4096 MB Channels: 1 Width: 64-bit Data Rate: 6400 MT/s
CPU 0 runs /home/sumon/secure_berti/GhostMinion/../../traces/spec/619.lbm_s-2677B.champsimtrace.xz
.xz
BTB has LRU replacement policy
ITLB has LRU replacement policy
DTLB has LRU replacement policy
STLB has LRU replacement policy
L1I has LRU replacement policy
L0D has LRU replacement policy
L1D has LRU replacement policy
PERC_ENTRIES: 4096
L2C has LRU replacement policy
LLC has LRU replacement policy
Heartbeat CPU 0 instructions: 10000001 cycles: 3055620 heartbeat IPC: 3.27266 cumulative IPC: 3.27266 (Simulation time: 0 hr 0 min 32 sec) 
Heartbeat CPU 0 instructions: 20000003 cycles: 6100014 heartbeat IPC: 3.28473 cumulative IPC: 3.27868 (Simulation time: 0 hr 1 min 4 sec) 
Heartbeat CPU 0 instructions: 30000000 cycles: 9152215 heartbeat IPC: 3.27632 cumulative IPC: 3.27789 (Simulation time: 0 hr 1 min 37 sec) 
Heartbeat CPU 0 instructions: 40000000 cycles: 12202759 heartbeat IPC: 3.2781 cumulative IPC: 3.27795 (Simulation time: 0 hr 2 min 9 sec) 
Heartbeat CPU 0 instructions: 50000003 cycles: 15259461 heartbeat IPC: 3.2715 cumulative IPC: 3.27666 (Simulation time: 0 hr 2 min 41 sec) 

Warmup complete CPU 0 instructions: 50000003 cycles: 15259461 (Simulation time: 0 hr 2 min 41 sec) 

Heartbeat CPU 0 instructions: 60000001 cycles: 38115979 heartbeat IPC: 0.437512 cumulative IPC: 0.437512 (Simulation time: 0 hr 3 min 48 sec) 
Heartbeat CPU 0 instructions: 70000002 cycles: 60674942 heartbeat IPC: 0.443283 cumulative IPC: 0.440378 (Simulation time: 0 hr 4 min 56 sec) 
Heartbeat CPU 0 instructions: 80000002 cycles: 83321863 heartbeat IPC: 0.441561 cumulative IPC: 0.440772 (Simulation time: 0 hr 6 min 5 sec) 
Heartbeat CPU 0 instructions: 90000002 cycles: 106971234 heartbeat IPC: 0.422844 cumulative IPC: 0.436149 (Simulation time: 0 hr 7 min 16 sec) 
Heartbeat CPU 0 instructions: 100000000 cycles: 130295716 heartbeat IPC: 0.428734 cumulative IPC: 0.434646 (Simulation time: 0 hr 8 min 27 sec) 
Heartbeat CPU 0 instructions: 110000000 cycles: 153773919 heartbeat IPC: 0.425927 cumulative IPC: 0.433168 (Simulation time: 0 hr 9 min 39 sec) 
Heartbeat CPU 0 instructions: 120000000 cycles: 176686740 heartbeat IPC: 0.436437 cumulative IPC: 0.433632 (Simulation time: 0 hr 10 min 49 sec) 
Heartbeat CPU 0 instructions: 130000001 cycles: 199496408 heartbeat IPC: 0.438411 cumulative IPC: 0.434223 (Simulation time: 0 hr 12 min 2 sec) 
Heartbeat CPU 0 instructions: 140000001 cycles: 222699697 heartbeat IPC: 0.430973 cumulative IPC: 0.43386 (Simulation time: 0 hr 13 min 10 sec) 
Heartbeat CPU 0 instructions: 150000000 cycles: 245991907 heartbeat IPC: 0.429328 cumulative IPC: 0.433402 (Simulation time: 0 hr 14 min 14 sec) 
Heartbeat CPU 0 instructions: 160000003 cycles: 268948043 heartbeat IPC: 0.435614 cumulative IPC: 0.433602 (Simulation time: 0 hr 15 min 17 sec) 
Heartbeat CPU 0 instructions: 170000000 cycles: 291684704 heartbeat IPC: 0.439818 cumulative IPC: 0.434114 (Simulation time: 0 hr 16 min 15 sec) 
Heartbeat CPU 0 instructions: 180000000 cycles: 313734456 heartbeat IPC: 0.45352 cumulative IPC: 0.435547 (Simulation time: 0 hr 17 min 10 sec) 
Heartbeat CPU 0 instructions: 190000001 cycles: 336529397 heartbeat IPC: 0.438694 cumulative IPC: 0.435771 (Simulation time: 0 hr 18 min 6 sec) 
Heartbeat CPU 0 instructions: 200000000 cycles: 359137283 heartbeat IPC: 0.442323 cumulative IPC: 0.436201 (Simulation time: 0 hr 19 min 3 sec) 
Heartbeat CPU 0 instructions: 210000000 cycles: 381631597 heartbeat IPC: 0.444557 cumulative IPC: 0.436714 (Simulation time: 0 hr 19 min 59 sec) 
Heartbeat CPU 0 instructions: 220000000 cycles: 404823541 heartbeat IPC: 0.431184 cumulative IPC: 0.436385 (Simulation time: 0 hr 20 min 54 sec) 
Heartbeat CPU 0 instructions: 230000000 cycles: 428335784 heartbeat IPC: 0.42531 cumulative IPC: 0.435755 (Simulation time: 0 hr 21 min 50 sec) 
Heartbeat CPU 0 instructions: 240000001 cycles: 452978961 heartbeat IPC: 0.405792 cumulative IPC: 0.434068 (Simulation time: 0 hr 22 min 46 sec) 
Heartbeat CPU 0 instructions: 250000003 cycles: 476958286 heartbeat IPC: 0.417026 cumulative IPC: 0.433183 (Simulation time: 0 hr 23 min 42 sec) 
Finished CPU 0 instructions: 200000000 cycles: 461698825 cumulative IPC: 0.433183 (Simulation time: 0 hr 23 min 42 sec) 
 Instruction ID: 250000082

ChampSim completed all CPUs

Region of Interest Statistics

CPU 0 cumulative IPC: 0.433183 instructions: 200000000 cycles: 461698825
ITLB SPEC fills:          0  NON-SPEC fills:          0
ITLB Test counter :          0
ITLB Leapfrog:          0
ITLB MSHR merge:          0
ITLB TOTAL     ACCESS:   26850681  HIT:   26850681  MISS:          0  HIT %:        100  MISS %:          0   MPKI: 0
ITLB LOAD TRANSLATION NON_SPEC    ACCESS:   26850681  HIT:   26850681  MISS:          0  HIT %:        100  MISS %:          0   MPKI: 0
ITLB PREFETCH  REQUESTED:          0  ISSUED:          0  USEFUL:          0  USELESS:          0
ITLB USEFUL LOAD PREFETCHES:          0 PREFETCH ISSUED TO LOWER LEVEL:          0  ACCURACY: -nan
ITLB TIMELY PREFETCHES:          0 LATE PREFETCHES: 0 DROPPED PREFETCHES: 0
ITLB COMMIT LATE PREFETCHES: 0 MISSED OPPORTUNITY: 0 LATE IN PQ: 0 UNCOVERED: 0
ITLB COMMIT LATE MSHR PREFETCHES: 0
ITLB MPKI TOTAL: 0 MSHR LATE: 0 PQ LATE: 0 COMMIT LATE: 0 MISSED OPPORTUNITY: 0 UNCOVERED: 0
ITLB PREFETCHES SAME FILL-ORIGIN LEVEL: 0 DIFFERENT FILL-ORIGIN LEVEL: 0
ITLB AVERAGE MISS LATENCY: -nan cycles
ITLB AVERAGE MISS LATENCY LOAD: -nan cycles
ITLB AVERAGE MISS LATENCY PREFETCH: -nan cycles
ITLB AVERAGE MSHR OCCUPANCY: 0
ITLB MSHR FULL: 0
ITLB RQ	ACCESS:   34644829	FORWARD:          0	MERGED:    7794149	TO_CACHE:   26850680

DTLB SPEC fills:          0  NON-SPEC fills:          0
DTLB Test counter :          0
DTLB Leapfrog:          0
DTLB MSHR merge:          0
DTLB TOTAL     ACCESS:   46664851  HIT:   46388804  MISS:     276047  HIT %:    99.4084  MISS %:   0.591552   MPKI: 1.38024
DTLB LOAD TRANSLATION NON_SPEC    ACCESS:   46664851  HIT:   46388804  MISS:     276047  HIT %:    99.4084  MISS %:   0.591552   MPKI: 1.38024
DTLB PREFETCH  REQUESTED:          0  ISSUED:          0  USEFUL:          0  USELESS:          0
DTLB USEFUL LOAD PREFETCHES:          0 PREFETCH ISSUED TO LOWER LEVEL:          0  ACCURACY: -nan
DTLB TIMELY PREFETCHES:          0 LATE PREFETCHES: 0 DROPPED PREFETCHES: 0
DTLB COMMIT LATE PREFETCHES: 0 MISSED OPPORTUNITY: 0 LATE IN PQ: 0 UNCOVERED: 0
DTLB COMMIT LATE MSHR PREFETCHES: 0
DTLB MPKI TOTAL: 0 MSHR LATE: 0 PQ LATE: 0 COMMIT LATE: 0 MISSED OPPORTUNITY: 0 UNCOVERED: 0
DTLB PREFETCHES SAME FILL-ORIGIN LEVEL: 0 DIFFERENT FILL-ORIGIN LEVEL: 0
DTLB AVERAGE MISS LATENCY: 143.081 cycles
DTLB AVERAGE MISS LATENCY LOAD: -nan cycles
DTLB AVERAGE MISS LATENCY PREFETCH: -nan cycles
DTLB AVERAGE MSHR OCCUPANCY: 0.10003
DTLB MSHR FULL: 0
DTLB RQ	ACCESS:   68062961	FORWARD:          0	MERGED:   21225926	TO_CACHE:   46837035

STLB SPEC fills:          0  NON-SPEC fills:          0
STLB Test counter :          0
STLB Leapfrog:          0
STLB MSHR merge:          0
STLB TOTAL     ACCESS:     276047  HIT:     126263  MISS:     149784  HIT %:    45.7397  MISS %:    54.2603   MPKI: 0.74892
STLB LOAD TRANSLATION NON_SPEC    ACCESS:     276047  HIT:     126263  MISS:     149784  HIT %:    45.7397  MISS %:    54.2603   MPKI: 0.74892
STLB PREFETCH  REQUESTED:          0  ISSUED:          0  USEFUL:          0  USELESS:          0
STLB USEFUL LOAD PREFETCHES:          0 PREFETCH ISSUED TO LOWER LEVEL:          0  ACCURACY: -nan
STLB TIMELY PREFETCHES:          0 LATE PREFETCHES: 0 DROPPED PREFETCHES: 0
STLB COMMIT LATE PREFETCHES: 0 MISSED OPPORTUNITY: 0 LATE IN PQ: 0 UNCOVERED: 0
STLB COMMIT LATE MSHR PREFETCHES: 0
STLB MPKI TOTAL: 0 MSHR LATE: 0 PQ LATE: 0 COMMIT LATE: 0 MISSED OPPORTUNITY: 0 UNCOVERED: 0
STLB PREFETCHES SAME FILL-ORIGIN LEVEL: 0 DIFFERENT FILL-ORIGIN LEVEL: 0
STLB AVERAGE MISS LATENCY: 246.966 cycles
STLB AVERAGE MISS LATENCY LOAD: -nan cycles
STLB AVERAGE MISS LATENCY PREFETCH: -nan cycles
STLB AVERAGE MSHR OCCUPANCY: 0.184066
STLB MSHR FULL: 0
STLB RQ	ACCESS:     276047	FORWARD:          0	MERGED:          0	TO_CACHE:     276047

STLB Hit, L1D data hit: 0
STLB Hit, L2C data hit: 0
STLB Hit, LLC data hit: 0
STLB Hit, LLC data miss: 0
STLB STLB hints to L2: 0
L0D SPEC fills:   18706526  NON-SPEC fills:          0
L0D TimeGuard Request with older TS:      65382 Restricted eviction:     146195 read:     606411
L0D Test counter :          0
L0D Leapfrog:          0
L0D MSHR merge:    3902275
L0D TOTAL     ACCESS:   27215751  HIT:    6430851  MISS:   20784900  HIT %:    23.6292  MISS %:    76.3708   MPKI: 103.924
L0D LOAD      TOTAL       ACCESS:   27215751  HIT:    6430851  MISS:   20784900  HIT %:    23.6292  MISS %:    76.3708   MPKI: 103.924
L0D LOAD      NON_SPEC    ACCESS:    2739677  HIT:     807498  MISS:    1932179  HIT %:    29.4742  MISS %:    70.5258   MPKI: 9.6609
L0D LOAD      SPEC        ACCESS:   24476074  HIT:    5623353  MISS:   18852721  HIT %:    22.9749  MISS %:    77.0251   MPKI: 94.2636
L0D PREFETCH  REQUESTED:          0  ISSUED:          0  USEFUL:          0  USELESS:          0
L0D USEFUL LOAD PREFETCHES:          0 PREFETCH ISSUED TO LOWER LEVEL:          0  ACCURACY: -nan
L0D TIMELY PREFETCHES:          0 LATE PREFETCHES: 0 DROPPED PREFETCHES: 0
L0D COMMIT LATE PREFETCHES: 0 MISSED OPPORTUNITY: 0 LATE IN PQ: 0 UNCOVERED: 0
L0D COMMIT LATE MSHR PREFETCHES: 0
L0D MPKI TOTAL: 123.436 MSHR LATE: 0 PQ LATE: 0 COMMIT LATE: 0 MISSED OPPORTUNITY: 0 UNCOVERED: 0
L0D PREFETCHES SAME FILL-ORIGIN LEVEL: 0 DIFFERENT FILL-ORIGIN LEVEL: 0
L0D AVERAGE MISS LATENCY: 59.8676 cycles
L0D AVERAGE MISS LATENCY LOAD: 59.8676 cycles
L0D AVERAGE MISS LATENCY PREFETCH: -nan cycles
L0D AVERAGE MSHR OCCUPANCY: 2.58218
L0D MSHR FULL: 0.214051
L0D RQ	ACCESS:   50160910	FORWARD:          0	MERGED:   19042886	TO_CACHE:   31118024
L0D WQ	ACCESS:   36944937	FORWARD:          0	MERGED:          0	TO_CACHE:   36944937

L1D SPEC fills:          0  NON-SPEC fills:     240803
L1D Test counter :          0
L1D Leapfrog:          0
L1D MSHR merge:      20607
L1D TOTAL     ACCESS:   61945510  HIT:   43745211  MISS:   18200299  HIT %:    70.6189  MISS %:    29.3811   MPKI: 91.0015
L1D LOAD      TOTAL       ACCESS:   20764292  HIT:   18305041  MISS:    2459251  HIT %:    88.1563  MISS %:    11.8437   MPKI: 12.2963
L1D LOAD      NON_SPEC    ACCESS:    1923173  HIT:    1682370  MISS:     240803  HIT %:    87.4789  MISS %:    12.5211   MPKI: 1.20402
L1D LOAD      SPEC        ACCESS:   18841119  HIT:   16622671  MISS:    2218448  HIT %:    88.2255  MISS %:    11.7745   MPKI: 11.0922
L1D RFO       NON_SPEC    ACCESS:   36464308  HIT:   23053671  MISS:   13410637  HIT %:    63.2226  MISS %:    36.7774   MPKI: 67.0532
L1D COMMIT LOAD NON_SPEC    ACCESS:    2433958  HIT:    2169483  MISS:     264475  HIT %:     89.134  MISS %:     10.866   MPKI: 1.32238
L1D COMMIT WRITE NON_SPEC    ACCESS:    2282952  HIT:     217016  MISS:    2065936  HIT %:    9.50594  MISS %:    90.4941   MPKI: 10.3297
L1D PREFETCH  REQUESTED:          0  ISSUED:          0  USEFUL:          0  USELESS:          0
L1D USEFUL LOAD PREFETCHES:          0 PREFETCH ISSUED TO LOWER LEVEL:          0  ACCURACY: -nan
L1D TIMELY PREFETCHES:          0 LATE PREFETCHES: 0 DROPPED PREFETCHES: 0
L1D COMMIT LATE PREFETCHES: 0 MISSED OPPORTUNITY: 0 LATE IN PQ: 0 UNCOVERED: 0
L1D COMMIT LATE MSHR PREFETCHES: 0
L1D MPKI TOTAL: 12.3993 MSHR LATE: 0 PQ LATE: 0 COMMIT LATE: 0 MISSED OPPORTUNITY: 0 UNCOVERED: 0
L1D PREFETCHES SAME FILL-ORIGIN LEVEL: 0 DIFFERENT FILL-ORIGIN LEVEL: 0
L1D AVERAGE MISS LATENCY: 271.715 cycles
L1D AVERAGE MISS LATENCY LOAD: 99.0772 cycles
L1D AVERAGE MISS LATENCY PREFETCH: -nan cycles
L1D AVERAGE MSHR OCCUPANCY: 15.6175
L1D MSHR FULL: 0.94578
L1D RQ	ACCESS:   33899145	FORWARD:          0	MERGED:   10676512	TO_CACHE:   23222622
L1D WQ	ACCESS:   39213240	FORWARD:         11	MERGED:     240785	TO_CACHE:   38972455

L1D UNIQUE REGIONS ACCESSED: 0
L1D REGIONS CONFLICTS: 0
L1D Cross Page Prefetch Requests: 0
L1D Same Page Prefetch Requests: 0
L1D ROI Sum of L1D PQ occupancy: 0
L1D PREFETCHES PUSHED FROM L2C: 0
L1I SPEC fills:          0  NON-SPEC fills:          0
L1I Test counter :          0
L1I Leapfrog:          0
L1I MSHR merge:          0
L1I TOTAL     ACCESS:   34644830  HIT:   34644830  MISS:          0  HIT %:        100  MISS %:          0   MPKI: 0
L1I LOAD      TOTAL       ACCESS:   34644830  HIT:   34644830  MISS:          0  HIT %:        100  MISS %:          0   MPKI: 0
L1I LOAD      NON_SPEC    ACCESS:   34644830  HIT:   34644830  MISS:          0  HIT %:        100  MISS %:          0   MPKI: 0
L1I PREFETCH  REQUESTED:          0  ISSUED:          0  USEFUL:          0  USELESS:          0
L1I USEFUL LOAD PREFETCHES:          0 PREFETCH ISSUED TO LOWER LEVEL:          0  ACCURACY: -nan
L1I TIMELY PREFETCHES:          0 LATE PREFETCHES: 0 DROPPED PREFETCHES: 0
L1I COMMIT LATE PREFETCHES: 0 MISSED OPPORTUNITY: 0 LATE IN PQ: 0 UNCOVERED: 0
L1I COMMIT LATE MSHR PREFETCHES: 0
L1I MPKI TOTAL: 0 MSHR LATE: 0 PQ LATE: 0 COMMIT LATE: 0 MISSED OPPORTUNITY: 0 UNCOVERED: 0
L1I PREFETCHES SAME FILL-ORIGIN LEVEL: 0 DIFFERENT FILL-ORIGIN LEVEL: 0
L1I AVERAGE MISS LATENCY: -nan cycles
L1I AVERAGE MISS LATENCY LOAD: -nan cycles
L1I AVERAGE MISS LATENCY PREFETCH: -nan cycles
L1I AVERAGE MSHR OCCUPANCY: 0
L1I MSHR FULL: 0
L1I RQ	ACCESS:   49964172	FORWARD:          0	MERGED:   15319343	TO_CACHE:   34644829

BTB SPEC fills:          0  NON-SPEC fills:          0
BTB Test counter :          0
BTB Leapfrog:          0
BTB MSHR merge:          0
BTB TOTAL     ACCESS:    3609719  HIT:    3609713  MISS:          6  HIT %:    99.9998  MISS %: 0.000166218   MPKI: 3e-05
BTB BRANCH_DIRECT_JUMP	ACCESS:     590927  HIT:     590926  MISS:          1
BTB BRANCH_INDIRECT	ACCESS:          0  HIT:          0  MISS:          0
BTB BRANCH_CONDITIONAL	ACCESS:    3018792  HIT:    3018787  MISS:          5
BTB BRANCH_DIRECT_CALL	ACCESS:          0  HIT:          0  MISS:          0
BTB BRANCH_INDIRECT_CALL	ACCESS:          0  HIT:          0  MISS:          0
BTB BRANCH_RETURN	ACCESS:          0  HIT:          0  MISS:          0
BTB BRANCH_OTHER ACCESS:          0  HIT:          0  MISS:          0

L2C SPEC fills:          0  NON-SPEC fills:      11256
L2C Test counter :          0
L2C Leapfrog:          0
L2C MSHR merge:     126848
L2C TOTAL     ACCESS:   32981023  HIT:   23077206  MISS:    9903817  HIT %:    69.9712  MISS %:    30.0288   MPKI: 49.5191
L2C LOAD      TOTAL       ACCESS:    2459165  HIT:    2239651  MISS:     219514  HIT %:    91.0736  MISS %:    8.92636   MPKI: 1.09757
L2C LOAD      NON_SPEC    ACCESS:     240803  HIT:     229547  MISS:      11256  HIT %:    95.3256  MISS %:    4.67436   MPKI: 0.05628
L2C LOAD      SPEC        ACCESS:    2218362  HIT:    2010104  MISS:     208258  HIT %:    90.6121  MISS %:    9.38792   MPKI: 1.04129
L2C RFO       NON_SPEC    ACCESS:   13410636  HIT:    6133569  MISS:    7277067  HIT %:    45.7366  MISS %:    54.2634   MPKI: 36.3853
L2C PREFETCH  NON_SPEC    ACCESS:    2395077  HIT:     209757  MISS:    2185320  HIT %:    8.75784  MISS %:    91.2422   MPKI: 10.9266
L2C WRITEBACK NON_SPEC    ACCESS:   13410655  HIT:   13410224  MISS:        431  HIT %:    99.9968  MISS %: 0.00321386   MPKI: 0.002155
L2C CLEAN_EVICTION NON_SPEC    ACCESS:     292241  HIT:     122417  MISS:     169824  HIT %:    41.8891  MISS %:    58.1109   MPKI: 0.84912
L2C COMMIT LOAD NON_SPEC    ACCESS:     264475  HIT:     231717  MISS:      32758  HIT %:     87.614  MISS %:     12.386   MPKI: 0.16379
L2C LOAD TRANSLATION NON_SPEC    ACCESS:     748774  HIT:     729871  MISS:      18903  HIT %:    97.4755  MISS %:    2.52453   MPKI: 0.094515
L2C PREFETCH  REQUESTED:    2723855  ISSUED:    2723853  USEFUL:    2177180  USELESS:       8288
L2C USEFUL LOAD PREFETCHES:    2177180 PREFETCH ISSUED TO LOWER LEVEL:    2317768  ACCURACY: 93.9343
L2C TIMELY PREFETCHES:    2177180 LATE PREFETCHES: 126853 DROPPED PREFETCHES: 0
L2C COMMIT LATE PREFETCHES: 0 MISSED OPPORTUNITY: 0 LATE IN PQ: 0 UNCOVERED: 0
L2C COMMIT LATE MSHR PREFETCHES: 0
L2C MPKI TOTAL: 1.09757 MSHR LATE: 0.634265 PQ LATE: 0 COMMIT LATE: 0 MISSED OPPORTUNITY: 0 UNCOVERED: 0
L2C PREFETCHES SAME FILL-ORIGIN LEVEL: 2312177 DIFFERENT FILL-ORIGIN LEVEL: 5591
L2C AVERAGE MISS LATENCY: 589.62 cycles
L2C AVERAGE MISS LATENCY LOAD: 462.794 cycles
L2C AVERAGE MISS LATENCY PREFETCH: 564.721 cycles
L2C AVERAGE MSHR OCCUPANCY: 13.8173
L2C MSHR FULL: 9.77301e-06
L2C RQ	ACCESS:   16883148	FORWARD:          0	MERGED:          0	TO_CACHE:   16883061
L2C WQ	ACCESS:   13702896	FORWARD:         87	MERGED:          0	TO_CACHE:   13702896
L2C PQ	ACCESS:    2723853	FORWARD:          0	MERGED:      86056	TO_CACHE:    2637797

L2C Instructions Evicting Data 0
L2C Translations Evicting Data 18815
L2C Data Evicting Data 9487931
L2C Instructions Evicting Instructions 0
L2C Translations Evicting Instructions 0
L2C Data Evicting Instructions 0
L2C Instructions Evicting Translations 0
L2C Translations Evicting Translations 88
L2C Data Evicting Translations 18470
L2C Dense regions hint from L2: 0
PSCL5 SPEC fills:          0  NON-SPEC fills:          0
PSCL5 Test counter :          0
PSCL5 Leapfrog:          0
PSCL5 MSHR merge:          0
PSCL5 TOTAL     ACCESS:          0  HIT:          0  MISS:          0  HIT %:       -nan  MISS %:       -nan   MPKI: 0
PSCL5 PREFETCH  REQUESTED:          0  ISSUED:          0  USEFUL:          0  USELESS:          0
PSCL5 USEFUL LOAD PREFETCHES:          0 PREFETCH ISSUED TO LOWER LEVEL:          0  ACCURACY: -nan
PSCL5 TIMELY PREFETCHES:          0 LATE PREFETCHES: 0 DROPPED PREFETCHES: 0
PSCL5 COMMIT LATE PREFETCHES: 0 MISSED OPPORTUNITY: 0 LATE IN PQ: 0 UNCOVERED: 0
PSCL5 COMMIT LATE MSHR PREFETCHES: 0
PSCL5 MPKI TOTAL: 0 MSHR LATE: 0 PQ LATE: 0 COMMIT LATE: 0 MISSED OPPORTUNITY: 0 UNCOVERED: 0
PSCL5 PREFETCHES SAME FILL-ORIGIN LEVEL: 0 DIFFERENT FILL-ORIGIN LEVEL: 0

PSCL4 SPEC fills:          0  NON-SPEC fills:          0
PSCL4 Test counter :          0
PSCL4 Leapfrog:          0
PSCL4 MSHR merge:          0
PSCL4 TOTAL     ACCESS:          0  HIT:          0  MISS:          0  HIT %:       -nan  MISS %:       -nan   MPKI: 0
PSCL4 PREFETCH  REQUESTED:          0  ISSUED:          0  USEFUL:          0  USELESS:          0
PSCL4 USEFUL LOAD PREFETCHES:          0 PREFETCH ISSUED TO LOWER LEVEL:          0  ACCURACY: -nan
PSCL4 TIMELY PREFETCHES:          0 LATE PREFETCHES: 0 DROPPED PREFETCHES: 0
PSCL4 COMMIT LATE PREFETCHES: 0 MISSED OPPORTUNITY: 0 LATE IN PQ: 0 UNCOVERED: 0
PSCL4 COMMIT LATE MSHR PREFETCHES: 0
PSCL4 MPKI TOTAL: 0 MSHR LATE: 0 PQ LATE: 0 COMMIT LATE: 0 MISSED OPPORTUNITY: 0 UNCOVERED: 0
PSCL4 PREFETCHES SAME FILL-ORIGIN LEVEL: 0 DIFFERENT FILL-ORIGIN LEVEL: 0

PSCL3 SPEC fills:          0  NON-SPEC fills:          0
PSCL3 Test counter :          0
PSCL3 Leapfrog:          0
PSCL3 MSHR merge:          0
PSCL3 TOTAL     ACCESS:          0  HIT:          0  MISS:          0  HIT %:       -nan  MISS %:       -nan   MPKI: 0
PSCL3 PREFETCH  REQUESTED:          0  ISSUED:          0  USEFUL:          0  USELESS:          0
PSCL3 USEFUL LOAD PREFETCHES:          0 PREFETCH ISSUED TO LOWER LEVEL:          0  ACCURACY: -nan
PSCL3 TIMELY PREFETCHES:          0 LATE PREFETCHES: 0 DROPPED PREFETCHES: 0
PSCL3 COMMIT LATE PREFETCHES: 0 MISSED OPPORTUNITY: 0 LATE IN PQ: 0 UNCOVERED: 0
PSCL3 COMMIT LATE MSHR PREFETCHES: 0
PSCL3 MPKI TOTAL: 0 MSHR LATE: 0 PQ LATE: 0 COMMIT LATE: 0 MISSED OPPORTUNITY: 0 UNCOVERED: 0
PSCL3 PREFETCHES SAME FILL-ORIGIN LEVEL: 0 DIFFERENT FILL-ORIGIN LEVEL: 0

PSCL2 SPEC fills:          0  NON-SPEC fills:          0
PSCL2 Test counter :          0
PSCL2 Leapfrog:          0
PSCL2 MSHR merge:          0
PSCL2 TOTAL     ACCESS:          0  HIT:          0  MISS:          0  HIT %:       -nan  MISS %:       -nan   MPKI: 0
PSCL2 PREFETCH  REQUESTED:          0  ISSUED:          0  USEFUL:          0  USELESS:          0
PSCL2 USEFUL LOAD PREFETCHES:          0 PREFETCH ISSUED TO LOWER LEVEL:          0  ACCURACY: -nan
PSCL2 TIMELY PREFETCHES:          0 LATE PREFETCHES: 0 DROPPED PREFETCHES: 0
PSCL2 COMMIT LATE PREFETCHES: 0 MISSED OPPORTUNITY: 0 LATE IN PQ: 0 UNCOVERED: 0
PSCL2 COMMIT LATE MSHR PREFETCHES: 0
PSCL2 MPKI TOTAL: 0 MSHR LATE: 0 PQ LATE: 0 COMMIT LATE: 0 MISSED OPPORTUNITY: 0 UNCOVERED: 0
PSCL2 PREFETCHES SAME FILL-ORIGIN LEVEL: 0 DIFFERENT FILL-ORIGIN LEVEL: 0

LLC SPEC fills:          0  NON-SPEC fills:      10652
LLC Test counter :          0
LLC Leapfrog:          0
LLC MSHR merge:          0
LLC TOTAL     ACCESS:   17303554  HIT:    7620020  MISS:    9683534  HIT %:    44.0373  MISS %:    55.9627   MPKI: 48.4177
LLC LOAD      TOTAL       ACCESS:      92666  HIT:        580  MISS:      92086  HIT %:   0.625904  MISS %:    99.3741   MPKI: 0.46043
LLC LOAD      NON_SPEC    ACCESS:      10730  HIT:         78  MISS:      10652  HIT %:   0.726934  MISS %:    99.2731   MPKI: 0.05326
LLC LOAD      SPEC        ACCESS:      81936  HIT:        502  MISS:      81434  HIT %:   0.612673  MISS %:    99.3873   MPKI: 0.40717
LLC RFO       NON_SPEC    ACCESS:    7277011  HIT:      91288  MISS:    7185723  HIT %:    1.25447  MISS %:    98.7455   MPKI: 35.9286
LLC PREFETCH  NON_SPEC    ACCESS:    2317578  HIT:       6387  MISS:    2311191  HIT %:   0.275589  MISS %:    99.7244   MPKI: 11.556
LLC WRITEBACK NON_SPEC    ACCESS:    7276829  HIT:    7276482  MISS:        347  HIT %:    99.9952  MISS %: 0.00476856   MPKI: 0.001735
LLC CLEAN_EVICTION NON_SPEC    ACCESS:     287814  HIT:     220232  MISS:      67582  HIT %:    76.5189  MISS %:    23.4811   MPKI: 0.33791
LLC COMMIT LOAD NON_SPEC    ACCESS:      32753  HIT:      25051  MISS:       7702  HIT %:    76.4846  MISS %:    23.5154   MPKI: 0.03851
LLC LOAD TRANSLATION NON_SPEC    ACCESS:      18903  HIT:          0  MISS:      18903  HIT %:          0  MISS %:        100   MPKI: 0.094515
LLC PREFETCH  REQUESTED:          0  ISSUED:          0  USEFUL:      25502  USELESS:    2287025
LLC USEFUL LOAD PREFETCHES:      25502 PREFETCH ISSUED TO LOWER LEVEL:    2311195  ACCURACY: 1.10341
LLC TIMELY PREFETCHES:      25502 LATE PREFETCHES: 0 DROPPED PREFETCHES: 0
LLC COMMIT LATE PREFETCHES: 0 MISSED OPPORTUNITY: 0 LATE IN PQ: 0 UNCOVERED: 0
LLC COMMIT LATE MSHR PREFETCHES: 0
LLC MPKI TOTAL: 0.46043 MSHR LATE: 0 PQ LATE: 0 COMMIT LATE: 0 MISSED OPPORTUNITY: 0 UNCOVERED: 0
LLC PREFETCHES SAME FILL-ORIGIN LEVEL: 2295 DIFFERENT FILL-ORIGIN LEVEL: 0
LLC AVERAGE MISS LATENCY: 582.135 cycles
LLC AVERAGE MISS LATENCY LOAD: 477.297 cycles
LLC AVERAGE MISS LATENCY PREFETCH: 570.138 cycles
LLC AVERAGE MSHR OCCUPANCY: 13.0883
LLC MSHR FULL: 0
LLC RQ	ACCESS:    7421400	FORWARD:          0	MERGED:          0	TO_CACHE:    7421343
LLC WQ	ACCESS:    7564643	FORWARD:         57	MERGED:          0	TO_CACHE:    7564643
LLC PQ	ACCESS:    2317768	FORWARD:          0	MERGED:        110	TO_CACHE:    2317658

LLC Dense regions hint to LLC: 0

RAW hits: 2070564
Loads Generated: 52231474
Loads sent to L1D: 50160910
Stores Generated: 36944939
Stores sent to L1D: 36944937
Major fault: 0 Minor fault: 96650
Allocated PAGES: 96650
Total Load insts: 61698902
Total Non-spec loads: 3414217
Percentage of speculative loads: 94.4663

LeapFrogging counter: 16397478
Commit hits: 18641363 miss: 28472696
Commit hit %: 39.5665 miss %: 60.4335
Commits not translated: 0
Loads retired: 2459251
Stores retired: 36944937
Cache fills: 2459251
L1D response latency: 99.0772 cycles
Load retirement latency: 621.638 cycles
OOO test counter: 0
Discarded buffer inserts: 18641363 hits: 318053 hit %: 1.70617
Filter prediction accuracy: 99.3304
------------------
Depth Distribution
------------------
depth 0: 53253
depth 1: 2922
depth 2: 3826
depth 3: 9952
depth 4: 19811
depth 5: 44584
depth 6: 27154
depth 7: 24643
depth 8: 32560
depth 9: 40728
depth 10: 167723
depth 11: 842364
depth 12: 1137310
depth 13: 478721
depth 14: 165926
depth 15: 8275
depth 16: 1509
depth 17: 80
depth 18: 10
depth 19: 4
depth 20: 2
depth 21: 0
depth 22: 3
depth 23: 1
depth 24: 0
depth 25: 0
depth 26: 0
depth 27: 0
depth 28: 0
depth 29: 0
Total: 3061361
------------------
ST read accesses: 2421803
ST write accesses: 37362
PT read accesses: 153012819
PT write accesses: 3610862
FILTER read accesses: 39274559
FILTER write accesses: 24480665
GHR read accesses: 17630378
GHR write accesses: 3020045
PERC read accesses: 1102083165
PERC write accesses: 24482048
GHR counter read accesses: 4918330
GHR counter write accesses: 7622679
GHR ip read accesses: 15660699
GHR ip write accesses: 9836660
ST tag read accesses: 960997147
ST tag write accesses: 12108004

DRAM Statistics
 CHANNEL 0
 RQ ROW_BUFFER_HIT:     968456  ROW_BUFFER_MISS:    8647152
 DBUS_CONGESTED:         11
 WQ ROW_BUFFER_HIT:    1643744  ROW_BUFFER_MISS:    5828622  FULL:        574

 AVG_CONGESTED_CYCLE: 5
 All warmup complete: 2
Channel 0 Bank busy for read cycles: 0
Channel 0 Bank busy for write cycles: 0
Channel 0
Rank 0
0banks busy for read cycles: 52999659
0banks busy for write cycles: 25589
1banks busy for read cycles: 6811993
1banks busy for write cycles: 2881949
2banks busy for read cycles: 8307753
2banks busy for write cycles: 2382697
3banks busy for read cycles: 11273633
3banks busy for write cycles: 2167421
4banks busy for read cycles: 18475741
4banks busy for write cycles: 2105371
5banks busy for read cycles: 31658052
5banks busy for write cycles: 2149732
6banks busy for read cycles: 41593796
6banks busy for write cycles: 2419922
7banks busy for read cycles: 60405749
7banks busy for write cycles: 9968112
8banks busy for read cycles: 70661414
8banks busy for write cycles: 135410243

CPU 0 Branch Prediction Accuracy: 97.0951% MPKI: 0.52429 Average ROB Occupancy at Mispredict: 168.564
Branch types
NOT_BRANCH: 196389966 98.195%
BRANCH_DIRECT_JUMP: 590927 0.295463%
BRANCH_INDIRECT: 0 0%
BRANCH_CONDITIONAL: 3018804 1.5094%
BRANCH_DIRECT_CALL: 0 0%
BRANCH_INDIRECT_CALL: 0 0%
BRANCH_RETURN: 0 0%
BRANCH_OTHER: 0 0%

DRAM PAGES: 1048576
Allocated PAGES: 96650
