Initialize SIGNATURE TABLE
ST_SET: 1
ST_WAY: 256
ST_TAG_BIT: 16
ST_TAG_MASK: ffff

Initialize PATTERN TABLE
PT_SET: 512
PT_WAY: 4
SIG_DELTA_BIT: 7
C_SIG_BIT: 4
C_DELTA_BIT: 4

Initialize PREFETCH FILTER
FILTER_SET: 1024

Initialize PERCEPTRON
PERC_ENTRIES: 4096
PERC_FEATURES: 9

*** ChampSim Multicore Out-of-Order Simulator ***

Warmup Instructions: 50000000
Simulation Instructions: 200000000
Number of CPUs: 1
LLC sets: 2048
LLC ways: 16
L0D sets: 16
L0D ways: 2
ROB size: 352
LQ size: 128
SQ size: 72
Secure Berti: OFF
Berti: OFF
Berti Fill: OFF
On commit prefetching: OFF
Hit-based filter: ON
Time-guarding: ON
Free-slotting: ON
Leap-frogging: ON
Train prefetcher on L0D bypass: OFF
No translation penalty for prefetchers: OFF
Prefetch to L0D only: OFF
Prefetch to L1D only: OFF
Clean evictions: ON
Commit loads: ON
Commit write: ON
Fill commit loads to L2C, LLC: ON
DRAM IO FREQUENCY: 6400
ROB SIZE: 352
Off-chip DRAM Size: 4096 MB Channels: 1 Width: 64-bit Data Rate: 6400 MT/s
CPU 0 runs /home/sumon/secure_berti/GhostMinion/../../traces/spec/620.omnetpp_s-141B.champsimtrace.xz
.xz
BTB has LRU replacement policy
ITLB has LRU replacement policy
DTLB has LRU replacement policy
STLB has LRU replacement policy
L1I has LRU replacement policy
L0D has LRU replacement policy
L1D has LRU replacement policy
PERC_ENTRIES: 4096
L2C has LRU replacement policy
LLC has LRU replacement policy
Heartbeat CPU 0 instructions: 10000000 cycles: 7993333 heartbeat IPC: 1.25104 cumulative IPC: 1.25104 (Simulation time: 0 hr 0 min 48 sec) 
Heartbeat CPU 0 instructions: 20000001 cycles: 16031753 heartbeat IPC: 1.24403 cumulative IPC: 1.24752 (Simulation time: 0 hr 1 min 37 sec) 
Heartbeat CPU 0 instructions: 30000000 cycles: 24086497 heartbeat IPC: 1.2415 cumulative IPC: 1.24551 (Simulation time: 0 hr 2 min 25 sec) 
Heartbeat CPU 0 instructions: 40000000 cycles: 32110022 heartbeat IPC: 1.24634 cumulative IPC: 1.24572 (Simulation time: 0 hr 3 min 12 sec) 
Heartbeat CPU 0 instructions: 50000003 cycles: 40178913 heartbeat IPC: 1.23933 cumulative IPC: 1.24443 (Simulation time: 0 hr 3 min 58 sec) 

Warmup complete CPU 0 instructions: 50000003 cycles: 40178913 (Simulation time: 0 hr 3 min 58 sec) 

Heartbeat CPU 0 instructions: 60000001 cycles: 82001542 heartbeat IPC: 0.239105 cumulative IPC: 0.239105 (Simulation time: 0 hr 4 min 52 sec) 
Heartbeat CPU 0 instructions: 70000000 cycles: 124301623 heartbeat IPC: 0.236406 cumulative IPC: 0.237748 (Simulation time: 0 hr 5 min 46 sec) 
Heartbeat CPU 0 instructions: 80000003 cycles: 166295711 heartbeat IPC: 0.238129 cumulative IPC: 0.237875 (Simulation time: 0 hr 6 min 41 sec) 
Heartbeat CPU 0 instructions: 90000003 cycles: 208305219 heartbeat IPC: 0.238041 cumulative IPC: 0.237916 (Simulation time: 0 hr 7 min 35 sec) 
Heartbeat CPU 0 instructions: 100000000 cycles: 249893573 heartbeat IPC: 0.240452 cumulative IPC: 0.238419 (Simulation time: 0 hr 8 min 30 sec) 
Heartbeat CPU 0 instructions: 110000000 cycles: 291770555 heartbeat IPC: 0.238795 cumulative IPC: 0.238482 (Simulation time: 0 hr 9 min 25 sec) 
Heartbeat CPU 0 instructions: 120000000 cycles: 333457395 heartbeat IPC: 0.239884 cumulative IPC: 0.238681 (Simulation time: 0 hr 10 min 19 sec) 
Heartbeat CPU 0 instructions: 130000000 cycles: 375473953 heartbeat IPC: 0.238001 cumulative IPC: 0.238596 (Simulation time: 0 hr 11 min 13 sec) 
Heartbeat CPU 0 instructions: 140000000 cycles: 417398690 heartbeat IPC: 0.238523 cumulative IPC: 0.238588 (Simulation time: 0 hr 12 min 6 sec) 
Heartbeat CPU 0 instructions: 150000003 cycles: 459638992 heartbeat IPC: 0.236741 cumulative IPC: 0.238402 (Simulation time: 0 hr 12 min 58 sec) 
Heartbeat CPU 0 instructions: 160000001 cycles: 501548062 heartbeat IPC: 0.238612 cumulative IPC: 0.238421 (Simulation time: 0 hr 13 min 49 sec) 
Heartbeat CPU 0 instructions: 170000001 cycles: 543237905 heartbeat IPC: 0.239867 cumulative IPC: 0.238541 (Simulation time: 0 hr 14 min 39 sec) 
Heartbeat CPU 0 instructions: 180000000 cycles: 585084042 heartbeat IPC: 0.238971 cumulative IPC: 0.238574 (Simulation time: 0 hr 15 min 28 sec) 
Heartbeat CPU 0 instructions: 190000000 cycles: 626666307 heartbeat IPC: 0.240487 cumulative IPC: 0.238709 (Simulation time: 0 hr 16 min 15 sec) 
Heartbeat CPU 0 instructions: 200000000 cycles: 669258736 heartbeat IPC: 0.234784 cumulative IPC: 0.238444 (Simulation time: 0 hr 17 min 2 sec) 
Heartbeat CPU 0 instructions: 210000000 cycles: 711289226 heartbeat IPC: 0.237923 cumulative IPC: 0.238411 (Simulation time: 0 hr 17 min 49 sec) 
Heartbeat CPU 0 instructions: 220000000 cycles: 753558538 heartbeat IPC: 0.236578 cumulative IPC: 0.238302 (Simulation time: 0 hr 18 min 36 sec) 
Heartbeat CPU 0 instructions: 230000001 cycles: 795632971 heartbeat IPC: 0.237674 cumulative IPC: 0.238267 (Simulation time: 0 hr 19 min 22 sec) 
Heartbeat CPU 0 instructions: 240000001 cycles: 837779810 heartbeat IPC: 0.237266 cumulative IPC: 0.238214 (Simulation time: 0 hr 20 min 7 sec) 
Heartbeat CPU 0 instructions: 250000000 cycles: 879056801 heartbeat IPC: 0.242266 cumulative IPC: 0.238414 (Simulation time: 0 hr 20 min 52 sec) 
Finished CPU 0 instructions: 200000001 cycles: 838877889 cumulative IPC: 0.238414 (Simulation time: 0 hr 20 min 52 sec) 
 Instruction ID: 250000041

ChampSim completed all CPUs

Region of Interest Statistics

CPU 0 cumulative IPC: 0.238414 instructions: 200000001 cycles: 838877889
ITLB SPEC fills:          0  NON-SPEC fills:          0
ITLB Test counter :          0
ITLB Leapfrog:          0
ITLB MSHR merge:          0
ITLB TOTAL     ACCESS:   33302455  HIT:   32990351  MISS:     312104  HIT %:    99.0628  MISS %:    0.93718   MPKI: 1.56052
ITLB LOAD TRANSLATION NON_SPEC    ACCESS:   33302455  HIT:   32990351  MISS:     312104  HIT %:    99.0628  MISS %:    0.93718   MPKI: 1.56052
ITLB PREFETCH  REQUESTED:          0  ISSUED:          0  USEFUL:          0  USELESS:          0
ITLB USEFUL LOAD PREFETCHES:          0 PREFETCH ISSUED TO LOWER LEVEL:          0  ACCURACY: -nan
ITLB TIMELY PREFETCHES:          0 LATE PREFETCHES: 0 DROPPED PREFETCHES: 0
ITLB COMMIT LATE PREFETCHES: 0 MISSED OPPORTUNITY: 0 LATE IN PQ: 0 UNCOVERED: 0
ITLB COMMIT LATE MSHR PREFETCHES: 0
ITLB MPKI TOTAL: 0 MSHR LATE: 0 PQ LATE: 0 COMMIT LATE: 0 MISSED OPPORTUNITY: 0 UNCOVERED: 0
ITLB PREFETCHES SAME FILL-ORIGIN LEVEL: 0 DIFFERENT FILL-ORIGIN LEVEL: 0
ITLB AVERAGE MISS LATENCY: 10.31 cycles
ITLB AVERAGE MISS LATENCY LOAD: -nan cycles
ITLB AVERAGE MISS LATENCY PREFETCH: -nan cycles
ITLB AVERAGE MSHR OCCUPANCY: 0.00922669
ITLB MSHR FULL: 0
ITLB RQ	ACCESS:   37446474	FORWARD:          0	MERGED:    4061479	TO_CACHE:   33384995

DTLB SPEC fills:          0  NON-SPEC fills:          0
DTLB Test counter :          0
DTLB Leapfrog:          0
DTLB MSHR merge:          0
DTLB TOTAL     ACCESS:   81807642  HIT:   77644959  MISS:    4162683  HIT %:    94.9116  MISS %:    5.08838   MPKI: 20.8134
DTLB LOAD TRANSLATION NON_SPEC    ACCESS:   81807642  HIT:   77644959  MISS:    4162683  HIT %:    94.9116  MISS %:    5.08838   MPKI: 20.8134
DTLB PREFETCH  REQUESTED:          0  ISSUED:          0  USEFUL:          0  USELESS:          0
DTLB USEFUL LOAD PREFETCHES:          0 PREFETCH ISSUED TO LOWER LEVEL:          0  ACCURACY: -nan
DTLB TIMELY PREFETCHES:          0 LATE PREFETCHES: 0 DROPPED PREFETCHES: 0
DTLB COMMIT LATE PREFETCHES: 0 MISSED OPPORTUNITY: 0 LATE IN PQ: 0 UNCOVERED: 0
DTLB COMMIT LATE MSHR PREFETCHES: 0
DTLB MPKI TOTAL: 0 MSHR LATE: 0 PQ LATE: 0 COMMIT LATE: 0 MISSED OPPORTUNITY: 0 UNCOVERED: 0
DTLB PREFETCHES SAME FILL-ORIGIN LEVEL: 0 DIFFERENT FILL-ORIGIN LEVEL: 0
DTLB AVERAGE MISS LATENCY: 43.8361 cycles
DTLB AVERAGE MISS LATENCY LOAD: -nan cycles
DTLB AVERAGE MISS LATENCY PREFETCH: -nan cycles
DTLB AVERAGE MSHR OCCUPANCY: 0.136916
DTLB MSHR FULL: 4.39468e-05
DTLB RQ	ACCESS:   92645498	FORWARD:          0	MERGED:   10731755	TO_CACHE:   81913743

STLB SPEC fills:          0  NON-SPEC fills:          0
STLB Test counter :          0
STLB Leapfrog:          0
STLB MSHR merge:          0
STLB TOTAL     ACCESS:    4474787  HIT:    3504922  MISS:     969865  HIT %:     78.326  MISS %:     21.674   MPKI: 4.84932
STLB LOAD TRANSLATION NON_SPEC    ACCESS:    4474787  HIT:    3504922  MISS:     969865  HIT %:     78.326  MISS %:     21.674   MPKI: 4.84932
STLB PREFETCH  REQUESTED:          0  ISSUED:          0  USEFUL:          0  USELESS:          0
STLB USEFUL LOAD PREFETCHES:          0 PREFETCH ISSUED TO LOWER LEVEL:          0  ACCURACY: -nan
STLB TIMELY PREFETCHES:          0 LATE PREFETCHES: 0 DROPPED PREFETCHES: 0
STLB COMMIT LATE PREFETCHES: 0 MISSED OPPORTUNITY: 0 LATE IN PQ: 0 UNCOVERED: 0
STLB COMMIT LATE MSHR PREFETCHES: 0
STLB MPKI TOTAL: 0 MSHR LATE: 0 PQ LATE: 0 COMMIT LATE: 0 MISSED OPPORTUNITY: 0 UNCOVERED: 0
STLB PREFETCHES SAME FILL-ORIGIN LEVEL: 0 DIFFERENT FILL-ORIGIN LEVEL: 0
STLB AVERAGE MISS LATENCY: 149.813 cycles
STLB AVERAGE MISS LATENCY LOAD: -nan cycles
STLB AVERAGE MISS LATENCY PREFETCH: -nan cycles
STLB AVERAGE MSHR OCCUPANCY: 0.118595
STLB MSHR FULL: 0
STLB RQ	ACCESS:    4474787	FORWARD:          0	MERGED:          0	TO_CACHE:    4474787

STLB Hit, L1D data hit: 0
STLB Hit, L2C data hit: 0
STLB Hit, LLC data hit: 0
STLB Hit, LLC data miss: 0
STLB STLB hints to L2: 0
L0D SPEC fills:   23194341  NON-SPEC fills:          0
L0D TimeGuard Request with older TS:     258967 Restricted eviction:     135414 read:     304985
L0D Test counter :          0
L0D Leapfrog:          0
L0D MSHR merge:     900040
L0D TOTAL     ACCESS:   54600357  HIT:    6878838  MISS:   47721519  HIT %:    12.5985  MISS %:    87.4015   MPKI: 238.608
L0D LOAD      TOTAL       ACCESS:   54600357  HIT:    6878838  MISS:   47721519  HIT %:    12.5985  MISS %:    87.4015   MPKI: 238.608
L0D LOAD      NON_SPEC    ACCESS:   24606339  HIT:     214569  MISS:   24391770  HIT %:   0.872007  MISS %:     99.128   MPKI: 121.959
L0D LOAD      SPEC        ACCESS:   29994018  HIT:    6664269  MISS:   23329749  HIT %:    22.2187  MISS %:    77.7813   MPKI: 116.649
L0D PREFETCH  REQUESTED:          0  ISSUED:          0  USEFUL:          0  USELESS:          0
L0D USEFUL LOAD PREFETCHES:          0 PREFETCH ISSUED TO LOWER LEVEL:          0  ACCURACY: -nan
L0D TIMELY PREFETCHES:          0 LATE PREFETCHES: 0 DROPPED PREFETCHES: 0
L0D COMMIT LATE PREFETCHES: 0 MISSED OPPORTUNITY: 0 LATE IN PQ: 0 UNCOVERED: 0
L0D COMMIT LATE MSHR PREFETCHES: 0
L0D MPKI TOTAL: 243.108 MSHR LATE: 0 PQ LATE: 0 COMMIT LATE: 0 MISSED OPPORTUNITY: 0 UNCOVERED: 0
L0D PREFETCHES SAME FILL-ORIGIN LEVEL: 0 DIFFERENT FILL-ORIGIN LEVEL: 0
L0D AVERAGE MISS LATENCY: 11.5787 cycles
L0D AVERAGE MISS LATENCY LOAD: 11.5787 cycles
L0D AVERAGE MISS LATENCY PREFETCH: -nan cycles
L0D AVERAGE MSHR OCCUPANCY: 0.517116
L0D MSHR FULL: 3.16745e-05
L0D RQ	ACCESS:   63499730	FORWARD:          0	MERGED:    7999339	TO_CACHE:   55500391
L0D WQ	ACCESS:   37145107	FORWARD:          0	MERGED:          0	TO_CACHE:   37145107

L1D SPEC fills:          0  NON-SPEC fills:     635732
L1D Test counter :          0
L1D Leapfrog:          0
L1D MSHR merge:      18908
L1D TOTAL     ACCESS:   87803763  HIT:   81238474  MISS:    6565289  HIT %:    92.5228  MISS %:    7.47723   MPKI: 32.8264
L1D LOAD      TOTAL       ACCESS:   47702611  HIT:   44318347  MISS:    3384264  HIT %:    92.9055  MISS %:     7.0945   MPKI: 16.9213
L1D LOAD      NON_SPEC    ACCESS:   24383350  HIT:   23747618  MISS:     635732  HIT %:    97.3928  MISS %:    2.60724   MPKI: 3.17866
L1D LOAD      SPEC        ACCESS:   23319261  HIT:   20570729  MISS:    2748532  HIT %:    88.2135  MISS %:    11.7865   MPKI: 13.7427
L1D RFO       NON_SPEC    ACCESS:   35902735  HIT:   35440702  MISS:     462033  HIT %:    98.7131  MISS %:     1.2869   MPKI: 2.31016
L1D COMMIT LOAD NON_SPEC    ACCESS:    1446920  HIT:    1432789  MISS:      14131  HIT %:    99.0234  MISS %:   0.976626   MPKI: 0.070655
L1D COMMIT WRITE NON_SPEC    ACCESS:    2751497  HIT:      46636  MISS:    2704861  HIT %:    1.69493  MISS %:    98.3051   MPKI: 13.5243
L1D PREFETCH  REQUESTED:          0  ISSUED:          0  USEFUL:          0  USELESS:          0
L1D USEFUL LOAD PREFETCHES:          0 PREFETCH ISSUED TO LOWER LEVEL:          0  ACCURACY: -nan
L1D TIMELY PREFETCHES:          0 LATE PREFETCHES: 0 DROPPED PREFETCHES: 0
L1D COMMIT LATE PREFETCHES: 0 MISSED OPPORTUNITY: 0 LATE IN PQ: 0 UNCOVERED: 0
L1D COMMIT LATE MSHR PREFETCHES: 0
L1D MPKI TOTAL: 17.0159 MSHR LATE: 0 PQ LATE: 0 COMMIT LATE: 0 MISSED OPPORTUNITY: 0 UNCOVERED: 0
L1D PREFETCHES SAME FILL-ORIGIN LEVEL: 0 DIFFERENT FILL-ORIGIN LEVEL: 0
L1D AVERAGE MISS LATENCY: 55.7233 cycles
L1D AVERAGE MISS LATENCY LOAD: 91.5827 cycles
L1D AVERAGE MISS LATENCY PREFETCH: -nan cycles
L1D AVERAGE MSHR OCCUPANCY: 0.214501
L1D MSHR FULL: 0
L1D RQ	ACCESS:   49499227	FORWARD:          0	MERGED:     276929	TO_CACHE:   49169218
L1D WQ	ACCESS:   39899434	FORWARD:      53080	MERGED:     370761	TO_CACHE:   39528673

L1D UNIQUE REGIONS ACCESSED: 0
L1D REGIONS CONFLICTS: 0
L1D Cross Page Prefetch Requests: 0
L1D Same Page Prefetch Requests: 0
L1D ROI Sum of L1D PQ occupancy: 0
L1D PREFETCHES PUSHED FROM L2C: 0
L1I SPEC fills:          0  NON-SPEC fills:          0
L1I Test counter :          0
L1I Leapfrog:          0
L1I MSHR merge:      37862
L1I TOTAL     ACCESS:   37408613  HIT:   37287675  MISS:     120938  HIT %:    99.6767  MISS %:   0.323289   MPKI: 0.60469
L1I LOAD      TOTAL       ACCESS:   37408613  HIT:   37287675  MISS:     120938  HIT %:    99.6767  MISS %:   0.323289   MPKI: 0.60469
L1I LOAD      NON_SPEC    ACCESS:   37408613  HIT:   37287675  MISS:     120938  HIT %:    99.6767  MISS %:   0.323289   MPKI: 0.60469
L1I PREFETCH  REQUESTED:          0  ISSUED:          0  USEFUL:          0  USELESS:          0
L1I USEFUL LOAD PREFETCHES:          0 PREFETCH ISSUED TO LOWER LEVEL:          0  ACCURACY: -nan
L1I TIMELY PREFETCHES:          0 LATE PREFETCHES: 0 DROPPED PREFETCHES: 0
L1I COMMIT LATE PREFETCHES: 0 MISSED OPPORTUNITY: 0 LATE IN PQ: 0 UNCOVERED: 0
L1I COMMIT LATE MSHR PREFETCHES: 0
L1I MPKI TOTAL: 0.794 MSHR LATE: 0 PQ LATE: 0 COMMIT LATE: 0 MISSED OPPORTUNITY: 0 UNCOVERED: 0
L1I PREFETCHES SAME FILL-ORIGIN LEVEL: 0 DIFFERENT FILL-ORIGIN LEVEL: 0
L1I AVERAGE MISS LATENCY: 29.8885 cycles
L1I AVERAGE MISS LATENCY LOAD: 29.8885 cycles
L1I AVERAGE MISS LATENCY PREFETCH: -nan cycles
L1I AVERAGE MSHR OCCUPANCY: 0.00492986
L1I MSHR FULL: 0
L1I RQ	ACCESS:   56566683	FORWARD:          0	MERGED:   19120209	TO_CACHE:   37446474

BTB SPEC fills:          0  NON-SPEC fills:          0
BTB Test counter :          0
BTB Leapfrog:          0
BTB MSHR merge:          0
BTB TOTAL     ACCESS:   32873214  HIT:   30947951  MISS:    1925263  HIT %:    94.1434  MISS %:    5.85663   MPKI: 9.62631
BTB BRANCH_DIRECT_JUMP	ACCESS:    2330259  HIT:    2330115  MISS:        144
BTB BRANCH_INDIRECT	ACCESS:     674228  HIT:     571149  MISS:     103079
BTB BRANCH_CONDITIONAL	ACCESS:   17721648  HIT:   17721119  MISS:        529
BTB BRANCH_DIRECT_CALL	ACCESS:    3701835  HIT:    3701543  MISS:        292
BTB BRANCH_INDIRECT_CALL	ACCESS:    2371706  HIT:    2363088  MISS:       8618
BTB BRANCH_RETURN	ACCESS:    6073538  HIT:    4260937  MISS:    1812601
BTB BRANCH_OTHER ACCESS:          0  HIT:          0  MISS:          0

L2C SPEC fills:          0  NON-SPEC fills:     408812
L2C Test counter :          0
L2C Leapfrog:          0
L2C MSHR merge:      86620
L2C TOTAL     ACCESS:   13359920  HIT:    7295182  MISS:    6064738  HIT %:     54.605  MISS %:     45.395   MPKI: 30.3237
L2C LOAD      TOTAL       ACCESS:    3505109  HIT:    1425067  MISS:    2080042  HIT %:    40.6569  MISS %:    59.3431   MPKI: 10.4002
L2C LOAD      NON_SPEC    ACCESS:     756651  HIT:     324033  MISS:     432618  HIT %:    42.8246  MISS %:    57.1754   MPKI: 2.16309
L2C LOAD      SPEC        ACCESS:    2748458  HIT:    1101034  MISS:    1647424  HIT %:    40.0601  MISS %:    59.9399   MPKI: 8.23712
L2C RFO       NON_SPEC    ACCESS:     461918  HIT:     101743  MISS:     360175  HIT %:    22.0262  MISS %:    77.9738   MPKI: 1.80087
L2C PREFETCH  NON_SPEC    ACCESS:    1747178  HIT:     338763  MISS:    1408415  HIT %:    19.3892  MISS %:    80.6108   MPKI: 7.04207
L2C WRITEBACK NON_SPEC    ACCESS:     663657  HIT:     662094  MISS:       1563  HIT %:    99.7645  MISS %:   0.235513   MPKI: 0.007815
L2C CLEAN_EVICTION NON_SPEC    ACCESS:    2118602  HIT:     528204  MISS:    1590398  HIT %:    24.9317  MISS %:    75.0683   MPKI: 7.95199
L2C COMMIT LOAD NON_SPEC    ACCESS:      14131  HIT:       9511  MISS:       4620  HIT %:    67.3059  MISS %:    32.6941   MPKI: 0.0231
L2C LOAD TRANSLATION NON_SPEC    ACCESS:    4849325  HIT:    4229800  MISS:     619525  HIT %:    87.2245  MISS %:    12.7755   MPKI: 3.09762
L2C PREFETCH  REQUESTED:    2511571  ISSUED:    2511571  USEFUL:     517698  USELESS:     891226
L2C USEFUL LOAD PREFETCHES:     517698 PREFETCH ISSUED TO LOWER LEVEL:    1896900  ACCURACY: 27.2918
L2C TIMELY PREFETCHES:     517698 LATE PREFETCHES: 89971 DROPPED PREFETCHES: 0
L2C COMMIT LATE PREFETCHES: 0 MISSED OPPORTUNITY: 0 LATE IN PQ: 0 UNCOVERED: 0
L2C COMMIT LATE MSHR PREFETCHES: 0
L2C MPKI TOTAL: 10.4002 MSHR LATE: 0.449855 PQ LATE: 0 COMMIT LATE: 0 MISSED OPPORTUNITY: 0 UNCOVERED: 0
L2C PREFETCHES SAME FILL-ORIGIN LEVEL: 1498386 DIFFERENT FILL-ORIGIN LEVEL: 398514
L2C AVERAGE MISS LATENCY: 101.78 cycles
L2C AVERAGE MISS LATENCY LOAD: 131.068 cycles
L2C AVERAGE MISS LATENCY PREFETCH: 166.268 cycles
L2C AVERAGE MSHR OCCUPANCY: 0.560769
L2C MSHR FULL: 0
L2C RQ	ACCESS:    8830691	FORWARD:          0	MERGED:          0	TO_CACHE:    8830483
L2C WQ	ACCESS:    2782260	FORWARD:        213	MERGED:          1	TO_CACHE:    2782259
L2C PQ	ACCESS:    2511571	FORWARD:          0	MERGED:       7630	TO_CACHE:    2503936

L2C Instructions Evicting Data 20147
L2C Translations Evicting Data 532631
L2C Data Evicting Data 1863206
L2C Instructions Evicting Instructions 462
L2C Translations Evicting Instructions 3234
L2C Data Evicting Instructions 11393
L2C Instructions Evicting Translations 3197
L2C Translations Evicting Translations 83660
L2C Data Evicting Translations 307423
L2C Dense regions hint from L2: 0
PSCL5 SPEC fills:          0  NON-SPEC fills:          0
PSCL5 Test counter :          0
PSCL5 Leapfrog:          0
PSCL5 MSHR merge:          0
PSCL5 TOTAL     ACCESS:          0  HIT:          0  MISS:          0  HIT %:       -nan  MISS %:       -nan   MPKI: 0
PSCL5 PREFETCH  REQUESTED:          0  ISSUED:          0  USEFUL:          0  USELESS:          0
PSCL5 USEFUL LOAD PREFETCHES:          0 PREFETCH ISSUED TO LOWER LEVEL:          0  ACCURACY: -nan
PSCL5 TIMELY PREFETCHES:          0 LATE PREFETCHES: 0 DROPPED PREFETCHES: 0
PSCL5 COMMIT LATE PREFETCHES: 0 MISSED OPPORTUNITY: 0 LATE IN PQ: 0 UNCOVERED: 0
PSCL5 COMMIT LATE MSHR PREFETCHES: 0
PSCL5 MPKI TOTAL: 0 MSHR LATE: 0 PQ LATE: 0 COMMIT LATE: 0 MISSED OPPORTUNITY: 0 UNCOVERED: 0
PSCL5 PREFETCHES SAME FILL-ORIGIN LEVEL: 0 DIFFERENT FILL-ORIGIN LEVEL: 0

PSCL4 SPEC fills:          0  NON-SPEC fills:          0
PSCL4 Test counter :          0
PSCL4 Leapfrog:          0
PSCL4 MSHR merge:          0
PSCL4 TOTAL     ACCESS:          0  HIT:          0  MISS:          0  HIT %:       -nan  MISS %:       -nan   MPKI: 0
PSCL4 PREFETCH  REQUESTED:          0  ISSUED:          0  USEFUL:          0  USELESS:          0
PSCL4 USEFUL LOAD PREFETCHES:          0 PREFETCH ISSUED TO LOWER LEVEL:          0  ACCURACY: -nan
PSCL4 TIMELY PREFETCHES:          0 LATE PREFETCHES: 0 DROPPED PREFETCHES: 0
PSCL4 COMMIT LATE PREFETCHES: 0 MISSED OPPORTUNITY: 0 LATE IN PQ: 0 UNCOVERED: 0
PSCL4 COMMIT LATE MSHR PREFETCHES: 0
PSCL4 MPKI TOTAL: 0 MSHR LATE: 0 PQ LATE: 0 COMMIT LATE: 0 MISSED OPPORTUNITY: 0 UNCOVERED: 0
PSCL4 PREFETCHES SAME FILL-ORIGIN LEVEL: 0 DIFFERENT FILL-ORIGIN LEVEL: 0

PSCL3 SPEC fills:          0  NON-SPEC fills:          0
PSCL3 Test counter :          0
PSCL3 Leapfrog:          0
PSCL3 MSHR merge:          0
PSCL3 TOTAL     ACCESS:          0  HIT:          0  MISS:          0  HIT %:       -nan  MISS %:       -nan   MPKI: 0
PSCL3 PREFETCH  REQUESTED:          0  ISSUED:          0  USEFUL:          0  USELESS:          0
PSCL3 USEFUL LOAD PREFETCHES:          0 PREFETCH ISSUED TO LOWER LEVEL:          0  ACCURACY: -nan
PSCL3 TIMELY PREFETCHES:          0 LATE PREFETCHES: 0 DROPPED PREFETCHES: 0
PSCL3 COMMIT LATE PREFETCHES: 0 MISSED OPPORTUNITY: 0 LATE IN PQ: 0 UNCOVERED: 0
PSCL3 COMMIT LATE MSHR PREFETCHES: 0
PSCL3 MPKI TOTAL: 0 MSHR LATE: 0 PQ LATE: 0 COMMIT LATE: 0 MISSED OPPORTUNITY: 0 UNCOVERED: 0
PSCL3 PREFETCHES SAME FILL-ORIGIN LEVEL: 0 DIFFERENT FILL-ORIGIN LEVEL: 0

PSCL2 SPEC fills:          0  NON-SPEC fills:          0
PSCL2 Test counter :          0
PSCL2 Leapfrog:          0
PSCL2 MSHR merge:          0
PSCL2 TOTAL     ACCESS:          0  HIT:          0  MISS:          0  HIT %:       -nan  MISS %:       -nan   MPKI: 0
PSCL2 PREFETCH  REQUESTED:          0  ISSUED:          0  USEFUL:          0  USELESS:          0
PSCL2 USEFUL LOAD PREFETCHES:          0 PREFETCH ISSUED TO LOWER LEVEL:          0  ACCURACY: -nan
PSCL2 TIMELY PREFETCHES:          0 LATE PREFETCHES: 0 DROPPED PREFETCHES: 0
PSCL2 COMMIT LATE PREFETCHES: 0 MISSED OPPORTUNITY: 0 LATE IN PQ: 0 UNCOVERED: 0
PSCL2 COMMIT LATE MSHR PREFETCHES: 0
PSCL2 MPKI TOTAL: 0 MSHR LATE: 0 PQ LATE: 0 COMMIT LATE: 0 MISSED OPPORTUNITY: 0 UNCOVERED: 0
PSCL2 PREFETCHES SAME FILL-ORIGIN LEVEL: 0 DIFFERENT FILL-ORIGIN LEVEL: 0

LLC SPEC fills:          0  NON-SPEC fills:     271488
LLC Test counter :          0
LLC Leapfrog:          0
LLC MSHR merge:       1421
LLC TOTAL     ACCESS:    7241257  HIT:    2705294  MISS:    4535963  HIT %:    37.3595  MISS %:    62.6405   MPKI: 22.6798
LLC LOAD      TOTAL       ACCESS:    1993416  HIT:     582195  MISS:    1411221  HIT %:    29.2059  MISS %:    70.7941   MPKI: 7.0561
LLC LOAD      NON_SPEC    ACCESS:     428806  HIT:     150303  MISS:     278503  HIT %:    35.0515  MISS %:    64.9485   MPKI: 1.39251
LLC LOAD      SPEC        ACCESS:    1564610  HIT:     431892  MISS:    1132718  HIT %:    27.6038  MISS %:    72.3962   MPKI: 5.66359
LLC RFO       NON_SPEC    ACCESS:     356826  HIT:     136984  MISS:     219842  HIT %:    38.3896  MISS %:    61.6104   MPKI: 1.09921
LLC PREFETCH  NON_SPEC    ACCESS:    1891530  HIT:     351870  MISS:    1539660  HIT %:    18.6024  MISS %:    81.3976   MPKI: 7.6983
LLC WRITEBACK NON_SPEC    ACCESS:     537573  HIT:     535784  MISS:       1789  HIT %:    99.6672  MISS %:   0.332792   MPKI: 0.008945
LLC CLEAN_EVICTION NON_SPEC    ACCESS:    1837774  HIT:     722082  MISS:    1115692  HIT %:    39.2911  MISS %:    60.7089   MPKI: 5.57846
LLC COMMIT LOAD NON_SPEC    ACCESS:       4613  HIT:       2733  MISS:       1880  HIT %:    59.2456  MISS %:    40.7544   MPKI: 0.0094
LLC LOAD TRANSLATION NON_SPEC    ACCESS:     619525  HIT:     373646  MISS:     245879  HIT %:    60.3117  MISS %:    39.6883   MPKI: 1.22939
LLC PREFETCH  REQUESTED:          0  ISSUED:          0  USEFUL:     106283  USELESS:    1434941
LLC USEFUL LOAD PREFETCHES:     106283 PREFETCH ISSUED TO LOWER LEVEL:    1542045  ACCURACY: 6.89234
LLC TIMELY PREFETCHES:     106283 LATE PREFETCHES: 2385 DROPPED PREFETCHES: 0
LLC COMMIT LATE PREFETCHES: 0 MISSED OPPORTUNITY: 0 LATE IN PQ: 0 UNCOVERED: 0
LLC COMMIT LATE MSHR PREFETCHES: 0
LLC MPKI TOTAL: 7.0561 MSHR LATE: 0.011925 PQ LATE: 0 COMMIT LATE: 0 MISSED OPPORTUNITY: 0 UNCOVERED: 0
LLC PREFETCHES SAME FILL-ORIGIN LEVEL: 315221 DIFFERENT FILL-ORIGIN LEVEL: 0
LLC AVERAGE MISS LATENCY: 122.363 cycles
LLC AVERAGE MISS LATENCY LOAD: 152.571 cycles
LLC AVERAGE MISS LATENCY PREFETCH: 168.143 cycles
LLC AVERAGE MSHR OCCUPANCY: 0.489311
LLC MSHR FULL: 0
LLC RQ	ACCESS:    2974391	FORWARD:          0	MERGED:          0	TO_CACHE:    2974380
LLC WQ	ACCESS:    2375347	FORWARD:         13	MERGED:          0	TO_CACHE:    2375347
LLC PQ	ACCESS:    1896900	FORWARD:          0	MERGED:       1201	TO_CACHE:    1895697

LLC Dense regions hint to LLC: 0

RAW hits: 3372811
Loads Generated: 66872541
Loads sent to L1D: 63499730
Stores Generated: 37145093
Stores sent to L1D: 37145107
Major fault: 0 Minor fault: 53031
Allocated PAGES: 53031
Total Load insts: 78640975
Total Non-spec loads: 28076426
Percentage of speculative loads: 64.298

LeapFrogging counter: 620
Commit hits: 23015815 miss: 15824030
Commit hit %: 59.2583 miss %: 40.7417
Commits not translated: 0
Loads retired: 3384264
Stores retired: 37145107
Cache fills: 3384264
L1D response latency: 91.5827 cycles
Load retirement latency: 190.258 cycles
OOO test counter: 0
Discarded buffer inserts: 23015815 hits: 21455 hit %: 0.0932185
Filter prediction accuracy: 99.9677
------------------
Depth Distribution
------------------
depth 0: 1794635
depth 1: 2323477
depth 2: 160426
depth 3: 2
depth 4: 0
depth 5: 0
depth 6: 0
depth 7: 0
depth 8: 0
depth 9: 0
depth 10: 0
depth 11: 0
depth 12: 0
depth 13: 0
depth 14: 0
depth 15: 0
depth 16: 0
depth 17: 0
depth 18: 0
depth 19: 0
depth 20: 0
depth 21: 0
depth 22: 0
depth 23: 0
depth 24: 0
depth 25: 0
depth 26: 0
depth 27: 0
depth 28: 0
depth 29: 0
Total: 4278540
------------------
ST read accesses: 2025275
ST write accesses: 1358896
PT read accesses: 31146446
PT write accesses: 2270487
FILTER read accesses: 15851573
FILTER write accesses: 14013707
GHR read accesses: 12515686
GHR write accesses: 207055
PERC read accesses: 211882743
PERC write accesses: 28439590
GHR counter read accesses: 6768342
GHR counter write accesses: 6967340
GHR ip read accesses: 22839921
GHR ip write accesses: 13536684
ST tag read accesses: 1996656534
ST tag write accesses: 400256489

DRAM Statistics
 CHANNEL 0
 RQ ROW_BUFFER_HIT:     305489  ROW_BUFFER_MISS:    3112977
 DBUS_CONGESTED:        777
 WQ ROW_BUFFER_HIT:     343214  ROW_BUFFER_MISS:    1463435  FULL:          0

 AVG_CONGESTED_CYCLE: 4
 All warmup complete: 2
Channel 0 Bank busy for read cycles: 0
Channel 0 Bank busy for write cycles: 0
Channel 0
Rank 0
0banks busy for read cycles: 377507816
0banks busy for write cycles: 627560
1banks busy for read cycles: 156768427
1banks busy for write cycles: 90944125
2banks busy for read cycles: 65391780
2banks busy for write cycles: 47551998
3banks busy for read cycles: 29144926
3banks busy for write cycles: 25718988
4banks busy for read cycles: 14224440
4banks busy for write cycles: 13007991
5banks busy for read cycles: 5941408
5banks busy for write cycles: 5826571
6banks busy for read cycles: 2438947
6banks busy for write cycles: 2171563
7banks busy for read cycles: 787491
7banks busy for write cycles: 633918
8banks busy for read cycles: 60964
8banks busy for write cycles: 128977

CPU 0 Branch Prediction Accuracy: 98.172% MPKI: 3.83776 Average ROB Occupancy at Mispredict: 36.5719
Branch types
NOT_BRANCH: 158010836 79.0054%
BRANCH_DIRECT_JUMP: 2330259 1.16513%
BRANCH_INDIRECT: 674228 0.337114%
BRANCH_CONDITIONAL: 26837262 13.4186%
BRANCH_DIRECT_CALL: 3701835 1.85092%
BRANCH_INDIRECT_CALL: 2371706 1.18585%
BRANCH_RETURN: 6073538 3.03677%
BRANCH_OTHER: 0 0%

DRAM PAGES: 1048576
Allocated PAGES: 53031
