Initialize SIGNATURE TABLE
ST_SET: 1
ST_WAY: 256
ST_TAG_BIT: 16
ST_TAG_MASK: ffff

Initialize PATTERN TABLE
PT_SET: 512
PT_WAY: 4
SIG_DELTA_BIT: 7
C_SIG_BIT: 4
C_DELTA_BIT: 4

Initialize PREFETCH FILTER
FILTER_SET: 1024

Initialize PERCEPTRON
PERC_ENTRIES: 4096
PERC_FEATURES: 9

*** ChampSim Multicore Out-of-Order Simulator ***

Warmup Instructions: 50000000
Simulation Instructions: 200000000
Number of CPUs: 1
LLC sets: 2048
LLC ways: 16
L0D sets: 16
L0D ways: 2
ROB size: 352
LQ size: 128
SQ size: 72
Secure Berti: OFF
Berti: OFF
Berti Fill: OFF
On commit prefetching: OFF
Hit-based filter: ON
Time-guarding: ON
Free-slotting: ON
Leap-frogging: ON
Train prefetcher on L0D bypass: OFF
No translation penalty for prefetchers: OFF
Prefetch to L0D only: OFF
Prefetch to L1D only: OFF
Clean evictions: ON
Commit loads: ON
Commit write: ON
Fill commit loads to L2C, LLC: ON
DRAM IO FREQUENCY: 6400
ROB SIZE: 352
Off-chip DRAM Size: 4096 MB Channels: 1 Width: 64-bit Data Rate: 6400 MT/s
CPU 0 runs /home/sumon/secure_berti/GhostMinion/../../traces/spec/623.xalancbmk_s-165B.champsimtrace.xz
.xz
BTB has LRU replacement policy
ITLB has LRU replacement policy
DTLB has LRU replacement policy
STLB has LRU replacement policy
L1I has LRU replacement policy
L0D has LRU replacement policy
L1D has LRU replacement policy
PERC_ENTRIES: 4096
L2C has LRU replacement policy
LLC has LRU replacement policy
Heartbeat CPU 0 instructions: 10000000 cycles: 3493455 heartbeat IPC: 2.8625 cumulative IPC: 2.8625 (Simulation time: 0 hr 0 min 28 sec) 
Heartbeat CPU 0 instructions: 20000001 cycles: 6993373 heartbeat IPC: 2.85721 cumulative IPC: 2.85985 (Simulation time: 0 hr 0 min 56 sec) 
Heartbeat CPU 0 instructions: 30000000 cycles: 10468825 heartbeat IPC: 2.87732 cumulative IPC: 2.86565 (Simulation time: 0 hr 1 min 24 sec) 
Heartbeat CPU 0 instructions: 40000003 cycles: 13955979 heartbeat IPC: 2.86767 cumulative IPC: 2.86616 (Simulation time: 0 hr 1 min 52 sec) 
Heartbeat CPU 0 instructions: 50000001 cycles: 17466901 heartbeat IPC: 2.84825 cumulative IPC: 2.86256 (Simulation time: 0 hr 2 min 21 sec) 

Warmup complete CPU 0 instructions: 50000001 cycles: 17466901 (Simulation time: 0 hr 2 min 21 sec) 

Heartbeat CPU 0 instructions: 60000003 cycles: 28899726 heartbeat IPC: 0.874675 cumulative IPC: 0.874675 (Simulation time: 0 hr 2 min 55 sec) 
Heartbeat CPU 0 instructions: 70000001 cycles: 40335131 heartbeat IPC: 0.874477 cumulative IPC: 0.874576 (Simulation time: 0 hr 3 min 31 sec) 
Heartbeat CPU 0 instructions: 80000001 cycles: 51766792 heartbeat IPC: 0.874764 cumulative IPC: 0.874638 (Simulation time: 0 hr 4 min 6 sec) 
Heartbeat CPU 0 instructions: 90000002 cycles: 63201325 heartbeat IPC: 0.874544 cumulative IPC: 0.874615 (Simulation time: 0 hr 4 min 42 sec) 
Heartbeat CPU 0 instructions: 100000001 cycles: 74633630 heartbeat IPC: 0.874714 cumulative IPC: 0.874635 (Simulation time: 0 hr 5 min 18 sec) 
Heartbeat CPU 0 instructions: 110000000 cycles: 86070560 heartbeat IPC: 0.87436 cumulative IPC: 0.874589 (Simulation time: 0 hr 5 min 54 sec) 
Heartbeat CPU 0 instructions: 120000000 cycles: 97500002 heartbeat IPC: 0.874933 cumulative IPC: 0.874638 (Simulation time: 0 hr 6 min 30 sec) 
Heartbeat CPU 0 instructions: 130000002 cycles: 108931740 heartbeat IPC: 0.874758 cumulative IPC: 0.874653 (Simulation time: 0 hr 7 min 6 sec) 
Heartbeat CPU 0 instructions: 140000002 cycles: 120361846 heartbeat IPC: 0.874883 cumulative IPC: 0.874679 (Simulation time: 0 hr 7 min 43 sec) 
Heartbeat CPU 0 instructions: 150000002 cycles: 131791681 heartbeat IPC: 0.874903 cumulative IPC: 0.874701 (Simulation time: 0 hr 8 min 20 sec) 
Heartbeat CPU 0 instructions: 160000000 cycles: 143221876 heartbeat IPC: 0.874876 cumulative IPC: 0.874717 (Simulation time: 0 hr 8 min 57 sec) 
Heartbeat CPU 0 instructions: 170000002 cycles: 154653519 heartbeat IPC: 0.874765 cumulative IPC: 0.874721 (Simulation time: 0 hr 9 min 33 sec) 
Heartbeat CPU 0 instructions: 180000002 cycles: 166087065 heartbeat IPC: 0.874619 cumulative IPC: 0.874713 (Simulation time: 0 hr 10 min 10 sec) 
Heartbeat CPU 0 instructions: 190000002 cycles: 177516099 heartbeat IPC: 0.874965 cumulative IPC: 0.874731 (Simulation time: 0 hr 10 min 47 sec) 
Heartbeat CPU 0 instructions: 200000002 cycles: 188944714 heartbeat IPC: 0.874997 cumulative IPC: 0.874749 (Simulation time: 0 hr 11 min 25 sec) 
Heartbeat CPU 0 instructions: 210000003 cycles: 200376843 heartbeat IPC: 0.874728 cumulative IPC: 0.874747 (Simulation time: 0 hr 12 min 3 sec) 
Heartbeat CPU 0 instructions: 220000000 cycles: 212024265 heartbeat IPC: 0.858559 cumulative IPC: 0.873778 (Simulation time: 0 hr 12 min 39 sec) 
Heartbeat CPU 0 instructions: 230000001 cycles: 223302903 heartbeat IPC: 0.886632 cumulative IPC: 0.874483 (Simulation time: 0 hr 13 min 16 sec) 
Heartbeat CPU 0 instructions: 240000002 cycles: 234381562 heartbeat IPC: 0.902636 cumulative IPC: 0.875921 (Simulation time: 0 hr 13 min 51 sec) 
Heartbeat CPU 0 instructions: 250000002 cycles: 245394147 heartbeat IPC: 0.908052 cumulative IPC: 0.877473 (Simulation time: 0 hr 14 min 24 sec) 
Finished CPU 0 instructions: 200000001 cycles: 227927246 cumulative IPC: 0.877473 (Simulation time: 0 hr 14 min 24 sec) 
 Instruction ID: 250000092

ChampSim completed all CPUs

Region of Interest Statistics

CPU 0 cumulative IPC: 0.877473 instructions: 200000001 cycles: 227927246
ITLB SPEC fills:          0  NON-SPEC fills:          0
ITLB Test counter :          0
ITLB Leapfrog:          0
ITLB MSHR merge:          0
ITLB TOTAL     ACCESS:   28382863  HIT:   28382852  MISS:         11  HIT %:        100  MISS %: 3.87558e-05   MPKI: 5.5e-05
ITLB LOAD TRANSLATION NON_SPEC    ACCESS:   28382863  HIT:   28382852  MISS:         11  HIT %:        100  MISS %: 3.87558e-05   MPKI: 5.5e-05
ITLB PREFETCH  REQUESTED:          0  ISSUED:          0  USEFUL:          0  USELESS:          0
ITLB USEFUL LOAD PREFETCHES:          0 PREFETCH ISSUED TO LOWER LEVEL:          0  ACCURACY: -nan
ITLB TIMELY PREFETCHES:          0 LATE PREFETCHES: 0 DROPPED PREFETCHES: 0
ITLB COMMIT LATE PREFETCHES: 0 MISSED OPPORTUNITY: 0 LATE IN PQ: 0 UNCOVERED: 0
ITLB COMMIT LATE MSHR PREFETCHES: 0
ITLB MPKI TOTAL: 0 MSHR LATE: 0 PQ LATE: 0 COMMIT LATE: 0 MISSED OPPORTUNITY: 0 UNCOVERED: 0
ITLB PREFETCHES SAME FILL-ORIGIN LEVEL: 0 DIFFERENT FILL-ORIGIN LEVEL: 0
ITLB AVERAGE MISS LATENCY: 364 cycles
ITLB AVERAGE MISS LATENCY LOAD: -nan cycles
ITLB AVERAGE MISS LATENCY PREFETCH: -nan cycles
ITLB AVERAGE MSHR OCCUPANCY: 0
ITLB MSHR FULL: 0
ITLB RQ	ACCESS:   37101551	FORWARD:          0	MERGED:    8718689	TO_CACHE:   28382862

DTLB SPEC fills:          0  NON-SPEC fills:          0
DTLB Test counter :          0
DTLB Leapfrog:          0
DTLB MSHR merge:          0
DTLB TOTAL     ACCESS:   41661061  HIT:   41595308  MISS:      65753  HIT %:    99.8422  MISS %:   0.157828   MPKI: 0.328765
DTLB LOAD TRANSLATION NON_SPEC    ACCESS:   41661061  HIT:   41595308  MISS:      65753  HIT %:    99.8422  MISS %:   0.157828   MPKI: 0.328765
DTLB PREFETCH  REQUESTED:          0  ISSUED:          0  USEFUL:          0  USELESS:          0
DTLB USEFUL LOAD PREFETCHES:          0 PREFETCH ISSUED TO LOWER LEVEL:          0  ACCURACY: -nan
DTLB TIMELY PREFETCHES:          0 LATE PREFETCHES: 0 DROPPED PREFETCHES: 0
DTLB COMMIT LATE PREFETCHES: 0 MISSED OPPORTUNITY: 0 LATE IN PQ: 0 UNCOVERED: 0
DTLB COMMIT LATE MSHR PREFETCHES: 0
DTLB MPKI TOTAL: 0 MSHR LATE: 0 PQ LATE: 0 COMMIT LATE: 0 MISSED OPPORTUNITY: 0 UNCOVERED: 0
DTLB PREFETCHES SAME FILL-ORIGIN LEVEL: 0 DIFFERENT FILL-ORIGIN LEVEL: 0
DTLB AVERAGE MISS LATENCY: 13.1286 cycles
DTLB AVERAGE MISS LATENCY LOAD: -nan cycles
DTLB AVERAGE MISS LATENCY PREFETCH: -nan cycles
DTLB AVERAGE MSHR OCCUPANCY: 0.000862693
DTLB MSHR FULL: 0
DTLB RQ	ACCESS:   45244557	FORWARD:          0	MERGED:    3583151	TO_CACHE:   41661406

STLB SPEC fills:          0  NON-SPEC fills:          0
STLB Test counter :          0
STLB Leapfrog:          0
STLB MSHR merge:          0
STLB TOTAL     ACCESS:      65764  HIT:      65017  MISS:        747  HIT %:    98.8641  MISS %:    1.13588   MPKI: 0.003735
STLB LOAD TRANSLATION NON_SPEC    ACCESS:      65764  HIT:      65017  MISS:        747  HIT %:    98.8641  MISS %:    1.13588   MPKI: 0.003735
STLB PREFETCH  REQUESTED:          0  ISSUED:          0  USEFUL:          0  USELESS:          0
STLB USEFUL LOAD PREFETCHES:          0 PREFETCH ISSUED TO LOWER LEVEL:          0  ACCURACY: -nan
STLB TIMELY PREFETCHES:          0 LATE PREFETCHES: 0 DROPPED PREFETCHES: 0
STLB COMMIT LATE PREFETCHES: 0 MISSED OPPORTUNITY: 0 LATE IN PQ: 0 UNCOVERED: 0
STLB COMMIT LATE MSHR PREFETCHES: 0
STLB MPKI TOTAL: 0 MSHR LATE: 0 PQ LATE: 0 COMMIT LATE: 0 MISSED OPPORTUNITY: 0 UNCOVERED: 0
STLB PREFETCHES SAME FILL-ORIGIN LEVEL: 0 DIFFERENT FILL-ORIGIN LEVEL: 0
STLB AVERAGE MISS LATENCY: 368.456 cycles
STLB AVERAGE MISS LATENCY LOAD: -nan cycles
STLB AVERAGE MISS LATENCY PREFETCH: -nan cycles
STLB AVERAGE MSHR OCCUPANCY: 0.00267624
STLB MSHR FULL: 0
STLB RQ	ACCESS:      65764	FORWARD:          0	MERGED:          0	TO_CACHE:      65764

STLB Hit, L1D data hit: 0
STLB Hit, L2C data hit: 0
STLB Hit, LLC data hit: 0
STLB Hit, LLC data miss: 0
STLB STLB hints to L2: 0
L0D SPEC fills:   26646117  NON-SPEC fills:          0
L0D TimeGuard Request with older TS:     132844 Restricted eviction:      43896 read:       5208
L0D Test counter :          0
L0D Leapfrog:          0
L0D MSHR merge:    3019804
L0D TOTAL     ACCESS:   39257659  HIT:    6890714  MISS:   32366945  HIT %:    17.5525  MISS %:    82.4475   MPKI: 161.835
L0D LOAD      TOTAL       ACCESS:   39257659  HIT:    6890714  MISS:   32366945  HIT %:    17.5525  MISS %:    82.4475   MPKI: 161.835
L0D LOAD      NON_SPEC    ACCESS:    5682243  HIT:       5311  MISS:    5676932  HIT %:  0.0934666  MISS %:    99.9065   MPKI: 28.3847
L0D LOAD      SPEC        ACCESS:   33575416  HIT:    6885403  MISS:   26690013  HIT %:    20.5073  MISS %:    79.4927   MPKI: 133.45
L0D PREFETCH  REQUESTED:          0  ISSUED:          0  USEFUL:          0  USELESS:          0
L0D USEFUL LOAD PREFETCHES:          0 PREFETCH ISSUED TO LOWER LEVEL:          0  ACCURACY: -nan
L0D TIMELY PREFETCHES:          0 LATE PREFETCHES: 0 DROPPED PREFETCHES: 0
L0D COMMIT LATE PREFETCHES: 0 MISSED OPPORTUNITY: 0 LATE IN PQ: 0 UNCOVERED: 0
L0D COMMIT LATE MSHR PREFETCHES: 0
L0D MPKI TOTAL: 176.934 MSHR LATE: 0 PQ LATE: 0 COMMIT LATE: 0 MISSED OPPORTUNITY: 0 UNCOVERED: 0
L0D PREFETCHES SAME FILL-ORIGIN LEVEL: 0 DIFFERENT FILL-ORIGIN LEVEL: 0
L0D AVERAGE MISS LATENCY: 6.87266 cycles
L0D AVERAGE MISS LATENCY LOAD: 6.87266 cycles
L0D AVERAGE MISS LATENCY PREFETCH: -nan cycles
L0D AVERAGE MSHR OCCUPANCY: 0.588111
L0D MSHR FULL: 0
L0D RQ	ACCESS:   58954099	FORWARD:          0	MERGED:   16676637	TO_CACHE:   42277462
L0D WQ	ACCESS:    2967095	FORWARD:          0	MERGED:          0	TO_CACHE:    2967095

L1D SPEC fills:          0  NON-SPEC fills:    1050963
L1D Test counter :          0
L1D Leapfrog:          0
L1D MSHR merge:        326
L1D TOTAL     ACCESS:   41554137  HIT:   34569607  MISS:    6984530  HIT %:    83.1917  MISS %:    16.8083   MPKI: 34.9226
L1D LOAD      TOTAL       ACCESS:   32366618  HIT:   28344911  MISS:    4021707  HIT %:    87.5745  MISS %:    12.4255   MPKI: 20.1085
L1D LOAD      NON_SPEC    ACCESS:    5676895  HIT:    4625932  MISS:    1050963  HIT %:     81.487  MISS %:     18.513   MPKI: 5.25481
L1D LOAD      SPEC        ACCESS:   26689723  HIT:   23718979  MISS:    2970744  HIT %:    88.8693  MISS %:    11.1307   MPKI: 14.8537
L1D RFO       NON_SPEC    ACCESS:    2957783  HIT:    2951669  MISS:       6114  HIT %:    99.7933  MISS %:   0.206709   MPKI: 0.03057
L1D COMMIT LOAD NON_SPEC    ACCESS:    3148944  HIT:    3147712  MISS:       1232  HIT %:    99.9609  MISS %:  0.0391242   MPKI: 0.00616
L1D COMMIT WRITE NON_SPEC    ACCESS:    3080792  HIT:     125315  MISS:    2955477  HIT %:    4.06762  MISS %:    95.9324   MPKI: 14.7774
L1D PREFETCH  REQUESTED:          0  ISSUED:          0  USEFUL:          0  USELESS:          0
L1D USEFUL LOAD PREFETCHES:          0 PREFETCH ISSUED TO LOWER LEVEL:          0  ACCURACY: -nan
L1D TIMELY PREFETCHES:          0 LATE PREFETCHES: 0 DROPPED PREFETCHES: 0
L1D COMMIT LATE PREFETCHES: 0 MISSED OPPORTUNITY: 0 LATE IN PQ: 0 UNCOVERED: 0
L1D COMMIT LATE MSHR PREFETCHES: 0
L1D MPKI TOTAL: 20.1102 MSHR LATE: 0 PQ LATE: 0 COMMIT LATE: 0 MISSED OPPORTUNITY: 0 UNCOVERED: 0
L1D PREFETCHES SAME FILL-ORIGIN LEVEL: 0 DIFFERENT FILL-ORIGIN LEVEL: 0
L1D AVERAGE MISS LATENCY: 8.6283 cycles
L1D AVERAGE MISS LATENCY LOAD: 14.8915 cycles
L1D AVERAGE MISS LATENCY PREFETCH: -nan cycles
L1D AVERAGE MSHR OCCUPANCY: 0.139101
L1D MSHR FULL: 0
L1D RQ	ACCESS:   40940383	FORWARD:          0	MERGED:    5422833	TO_CACHE:   35517550
L1D WQ	ACCESS:    6047888	FORWARD:          0	MERGED:        502	TO_CACHE:    6047386

L1D UNIQUE REGIONS ACCESSED: 0
L1D REGIONS CONFLICTS: 0
L1D Cross Page Prefetch Requests: 0
L1D Same Page Prefetch Requests: 0
L1D ROI Sum of L1D PQ occupancy: 0
L1D PREFETCHES PUSHED FROM L2C: 0
L1I SPEC fills:          0  NON-SPEC fills:          0
L1I Test counter :          0
L1I Leapfrog:          0
L1I MSHR merge:          8
L1I TOTAL     ACCESS:   37101543  HIT:   37101451  MISS:         92  HIT %:    99.9998  MISS %: 0.000247968   MPKI: 0.00046
L1I LOAD      TOTAL       ACCESS:   37101543  HIT:   37101451  MISS:         92  HIT %:    99.9998  MISS %: 0.000247968   MPKI: 0.00046
L1I LOAD      NON_SPEC    ACCESS:   37101543  HIT:   37101451  MISS:         92  HIT %:    99.9998  MISS %: 0.000247968   MPKI: 0.00046
L1I PREFETCH  REQUESTED:          0  ISSUED:          0  USEFUL:          0  USELESS:          0
L1I USEFUL LOAD PREFETCHES:          0 PREFETCH ISSUED TO LOWER LEVEL:          0  ACCURACY: -nan
L1I TIMELY PREFETCHES:          0 LATE PREFETCHES: 0 DROPPED PREFETCHES: 0
L1I COMMIT LATE PREFETCHES: 0 MISSED OPPORTUNITY: 0 LATE IN PQ: 0 UNCOVERED: 0
L1I COMMIT LATE MSHR PREFETCHES: 0
L1I MPKI TOTAL: 0.0005 MSHR LATE: 0 PQ LATE: 0 COMMIT LATE: 0 MISSED OPPORTUNITY: 0 UNCOVERED: 0
L1I PREFETCHES SAME FILL-ORIGIN LEVEL: 0 DIFFERENT FILL-ORIGIN LEVEL: 0
L1I AVERAGE MISS LATENCY: 177.065 cycles
L1I AVERAGE MISS LATENCY LOAD: 177.065 cycles
L1I AVERAGE MISS LATENCY PREFETCH: -nan cycles
L1I AVERAGE MSHR OCCUPANCY: 9.43357e-07
L1I MSHR FULL: 0
L1I RQ	ACCESS:   73297297	FORWARD:          0	MERGED:   36195746	TO_CACHE:   37101551

BTB SPEC fills:          0  NON-SPEC fills:          0
BTB Test counter :          0
BTB Leapfrog:          0
BTB MSHR merge:          0
BTB TOTAL     ACCESS:   32869653  HIT:   32861236  MISS:       8417  HIT %:    99.9744  MISS %:  0.0256072   MPKI: 0.042085
BTB BRANCH_DIRECT_JUMP	ACCESS:      10018  HIT:       9991  MISS:         27
BTB BRANCH_INDIRECT	ACCESS:          0  HIT:          0  MISS:          0
BTB BRANCH_CONDITIONAL	ACCESS:   30064981  HIT:   30064870  MISS:        111
BTB BRANCH_DIRECT_CALL	ACCESS:     706558  HIT:     706534  MISS:         24
BTB BRANCH_INDIRECT_CALL	ACCESS:     690770  HIT:     690753  MISS:         17
BTB BRANCH_RETURN	ACCESS:    1397326  HIT:    1389088  MISS:       8238
BTB BRANCH_OTHER ACCESS:          0  HIT:          0  MISS:          0

L2C SPEC fills:          0  NON-SPEC fills:      45155
L2C Test counter :          0
L2C Leapfrog:          0
L2C MSHR merge:      78596
L2C TOTAL     ACCESS:    8458822  HIT:    4835969  MISS:    3622853  HIT %:    57.1707  MISS %:    42.8293   MPKI: 18.1143
L2C LOAD      TOTAL       ACCESS:    4021734  HIT:    3815882  MISS:     205852  HIT %:    94.8815  MISS %:    5.11849   MPKI: 1.02926
L2C LOAD      NON_SPEC    ACCESS:    1051055  HIT:    1005808  MISS:      45247  HIT %:    95.6951  MISS %:    4.30491   MPKI: 0.226235
L2C LOAD      SPEC        ACCESS:    2970679  HIT:    2810074  MISS:     160605  HIT %:    94.5937  MISS %:    5.40634   MPKI: 0.803025
L2C RFO       NON_SPEC    ACCESS:       6114  HIT:       4458  MISS:       1656  HIT %:    72.9146  MISS %:    27.0854   MPKI: 0.00828
L2C PREFETCH  NON_SPEC    ACCESS:    4189415  HIT:     930232  MISS:    3259183  HIT %:    22.2043  MISS %:    77.7957   MPKI: 16.2959
L2C WRITEBACK NON_SPEC    ACCESS:       6793  HIT:       6792  MISS:          1  HIT %:    99.9853  MISS %:   0.014721   MPKI: 5e-06
L2C CLEAN_EVICTION NON_SPEC    ACCESS:     229809  HIT:      74694  MISS:     155115  HIT %:    32.5026  MISS %:    67.4974   MPKI: 0.775575
L2C COMMIT LOAD NON_SPEC    ACCESS:       1232  HIT:        845  MISS:        387  HIT %:    68.5877  MISS %:    31.4123   MPKI: 0.001935
L2C LOAD TRANSLATION NON_SPEC    ACCESS:       3725  HIT:       3066  MISS:        659  HIT %:    82.3087  MISS %:    17.6913   MPKI: 0.003295
L2C PREFETCH  REQUESTED:    4393700  ISSUED:    4393686  USEFUL:    2979465  USELESS:     277257
L2C USEFUL LOAD PREFETCHES:    2979465 PREFETCH ISSUED TO LOWER LEVEL:    3338590  ACCURACY: 89.2432
L2C TIMELY PREFETCHES:    2979465 LATE PREFETCHES: 78602 DROPPED PREFETCHES: 0
L2C COMMIT LATE PREFETCHES: 0 MISSED OPPORTUNITY: 0 LATE IN PQ: 0 UNCOVERED: 0
L2C COMMIT LATE MSHR PREFETCHES: 0
L2C MPKI TOTAL: 1.02926 MSHR LATE: 0.39301 PQ LATE: 0 COMMIT LATE: 0 MISSED OPPORTUNITY: 0 UNCOVERED: 0
L2C PREFETCHES SAME FILL-ORIGIN LEVEL: 3337784 DIFFERENT FILL-ORIGIN LEVEL: 806
L2C AVERAGE MISS LATENCY: 102.575 cycles
L2C AVERAGE MISS LATENCY LOAD: 52.275 cycles
L2C AVERAGE MISS LATENCY PREFETCH: 110.6 cycles
L2C AVERAGE MSHR OCCUPANCY: 1.67574
L2C MSHR FULL: 0
L2C RQ	ACCESS:    4032870	FORWARD:          0	MERGED:          0	TO_CACHE:    4032805
L2C WQ	ACCESS:     236602	FORWARD:         65	MERGED:          0	TO_CACHE:     236602
L2C PQ	ACCESS:    4393686	FORWARD:          0	MERGED:      55755	TO_CACHE:    4337931

L2C Instructions Evicting Data 92
L2C Translations Evicting Data 657
L2C Data Evicting Data 3305901
L2C Instructions Evicting Instructions 0
L2C Translations Evicting Instructions 2
L2C Data Evicting Instructions 81
L2C Instructions Evicting Translations 0
L2C Translations Evicting Translations 0
L2C Data Evicting Translations 399
L2C Dense regions hint from L2: 0
PSCL5 SPEC fills:          0  NON-SPEC fills:          0
PSCL5 Test counter :          0
PSCL5 Leapfrog:          0
PSCL5 MSHR merge:          0
PSCL5 TOTAL     ACCESS:          0  HIT:          0  MISS:          0  HIT %:       -nan  MISS %:       -nan   MPKI: 0
PSCL5 PREFETCH  REQUESTED:          0  ISSUED:          0  USEFUL:          0  USELESS:          0
PSCL5 USEFUL LOAD PREFETCHES:          0 PREFETCH ISSUED TO LOWER LEVEL:          0  ACCURACY: -nan
PSCL5 TIMELY PREFETCHES:          0 LATE PREFETCHES: 0 DROPPED PREFETCHES: 0
PSCL5 COMMIT LATE PREFETCHES: 0 MISSED OPPORTUNITY: 0 LATE IN PQ: 0 UNCOVERED: 0
PSCL5 COMMIT LATE MSHR PREFETCHES: 0
PSCL5 MPKI TOTAL: 0 MSHR LATE: 0 PQ LATE: 0 COMMIT LATE: 0 MISSED OPPORTUNITY: 0 UNCOVERED: 0
PSCL5 PREFETCHES SAME FILL-ORIGIN LEVEL: 0 DIFFERENT FILL-ORIGIN LEVEL: 0

PSCL4 SPEC fills:          0  NON-SPEC fills:          0
PSCL4 Test counter :          0
PSCL4 Leapfrog:          0
PSCL4 MSHR merge:          0
PSCL4 TOTAL     ACCESS:          0  HIT:          0  MISS:          0  HIT %:       -nan  MISS %:       -nan   MPKI: 0
PSCL4 PREFETCH  REQUESTED:          0  ISSUED:          0  USEFUL:          0  USELESS:          0
PSCL4 USEFUL LOAD PREFETCHES:          0 PREFETCH ISSUED TO LOWER LEVEL:          0  ACCURACY: -nan
PSCL4 TIMELY PREFETCHES:          0 LATE PREFETCHES: 0 DROPPED PREFETCHES: 0
PSCL4 COMMIT LATE PREFETCHES: 0 MISSED OPPORTUNITY: 0 LATE IN PQ: 0 UNCOVERED: 0
PSCL4 COMMIT LATE MSHR PREFETCHES: 0
PSCL4 MPKI TOTAL: 0 MSHR LATE: 0 PQ LATE: 0 COMMIT LATE: 0 MISSED OPPORTUNITY: 0 UNCOVERED: 0
PSCL4 PREFETCHES SAME FILL-ORIGIN LEVEL: 0 DIFFERENT FILL-ORIGIN LEVEL: 0

PSCL3 SPEC fills:          0  NON-SPEC fills:          0
PSCL3 Test counter :          0
PSCL3 Leapfrog:          0
PSCL3 MSHR merge:          0
PSCL3 TOTAL     ACCESS:          0  HIT:          0  MISS:          0  HIT %:       -nan  MISS %:       -nan   MPKI: 0
PSCL3 PREFETCH  REQUESTED:          0  ISSUED:          0  USEFUL:          0  USELESS:          0
PSCL3 USEFUL LOAD PREFETCHES:          0 PREFETCH ISSUED TO LOWER LEVEL:          0  ACCURACY: -nan
PSCL3 TIMELY PREFETCHES:          0 LATE PREFETCHES: 0 DROPPED PREFETCHES: 0
PSCL3 COMMIT LATE PREFETCHES: 0 MISSED OPPORTUNITY: 0 LATE IN PQ: 0 UNCOVERED: 0
PSCL3 COMMIT LATE MSHR PREFETCHES: 0
PSCL3 MPKI TOTAL: 0 MSHR LATE: 0 PQ LATE: 0 COMMIT LATE: 0 MISSED OPPORTUNITY: 0 UNCOVERED: 0
PSCL3 PREFETCHES SAME FILL-ORIGIN LEVEL: 0 DIFFERENT FILL-ORIGIN LEVEL: 0

PSCL2 SPEC fills:          0  NON-SPEC fills:          0
PSCL2 Test counter :          0
PSCL2 Leapfrog:          0
PSCL2 MSHR merge:          0
PSCL2 TOTAL     ACCESS:          0  HIT:          0  MISS:          0  HIT %:       -nan  MISS %:       -nan   MPKI: 0
PSCL2 PREFETCH  REQUESTED:          0  ISSUED:          0  USEFUL:          0  USELESS:          0
PSCL2 USEFUL LOAD PREFETCHES:          0 PREFETCH ISSUED TO LOWER LEVEL:          0  ACCURACY: -nan
PSCL2 TIMELY PREFETCHES:          0 LATE PREFETCHES: 0 DROPPED PREFETCHES: 0
PSCL2 COMMIT LATE PREFETCHES: 0 MISSED OPPORTUNITY: 0 LATE IN PQ: 0 UNCOVERED: 0
PSCL2 COMMIT LATE MSHR PREFETCHES: 0
PSCL2 MPKI TOTAL: 0 MSHR LATE: 0 PQ LATE: 0 COMMIT LATE: 0 MISSED OPPORTUNITY: 0 UNCOVERED: 0
PSCL2 PREFETCHES SAME FILL-ORIGIN LEVEL: 0 DIFFERENT FILL-ORIGIN LEVEL: 0

LLC SPEC fills:          0  NON-SPEC fills:      20128
LLC Test counter :          0
LLC Leapfrog:          0
LLC MSHR merge:          3
LLC TOTAL     ACCESS:    3677469  HIT:     328195  MISS:    3349274  HIT %:    8.92448  MISS %:    91.0755   MPKI: 16.7464
LLC LOAD      TOTAL       ACCESS:     127256  HIT:      90549  MISS:      36707  HIT %:     71.155  MISS %:     28.845   MPKI: 0.183535
LLC LOAD      NON_SPEC    ACCESS:      24979  HIT:       4759  MISS:      20220  HIT %:     19.052  MISS %:     80.948   MPKI: 0.1011
LLC LOAD      SPEC        ACCESS:     102277  HIT:      85790  MISS:      16487  HIT %:    83.8801  MISS %:    16.1199   MPKI: 0.082435
LLC RFO       NON_SPEC    ACCESS:       1650  HIT:          1  MISS:       1649  HIT %:  0.0606061  MISS %:    99.9394   MPKI: 0.008245
LLC PREFETCH  NON_SPEC    ACCESS:    3338449  HIT:     114462  MISS:    3223987  HIT %:     3.4286  MISS %:    96.5714   MPKI: 16.1199
LLC WRITEBACK NON_SPEC    ACCESS:       1055  HIT:       1054  MISS:          1  HIT %:    99.9052  MISS %:  0.0947867   MPKI: 5e-06
LLC CLEAN_EVICTION NON_SPEC    ACCESS:     208013  HIT:     121728  MISS:      86285  HIT %:    58.5194  MISS %:    41.4806   MPKI: 0.431425
LLC COMMIT LOAD NON_SPEC    ACCESS:        387  HIT:        323  MISS:         64  HIT %:    83.4625  MISS %:    16.5375   MPKI: 0.00032
LLC LOAD TRANSLATION NON_SPEC    ACCESS:        659  HIT:         78  MISS:        581  HIT %:    11.8361  MISS %:    88.1639   MPKI: 0.002905
LLC PREFETCH  REQUESTED:          0  ISSUED:          0  USEFUL:        671  USELESS:    3225807
LLC USEFUL LOAD PREFETCHES:        671 PREFETCH ISSUED TO LOWER LEVEL:    3223990  ACCURACY: 0.0208127
LLC TIMELY PREFETCHES:        671 LATE PREFETCHES: 3 DROPPED PREFETCHES: 0
LLC COMMIT LATE PREFETCHES: 0 MISSED OPPORTUNITY: 0 LATE IN PQ: 0 UNCOVERED: 0
LLC COMMIT LATE MSHR PREFETCHES: 0
LLC MPKI TOTAL: 0.183535 MSHR LATE: 1.5e-05 PQ LATE: 0 COMMIT LATE: 0 MISSED OPPORTUNITY: 0 UNCOVERED: 0
LLC PREFETCHES SAME FILL-ORIGIN LEVEL: 624 DIFFERENT FILL-ORIGIN LEVEL: 0
LLC AVERAGE MISS LATENCY: 81.5142 cycles
LLC AVERAGE MISS LATENCY LOAD: 85.4923 cycles
LLC AVERAGE MISS LATENCY PREFETCH: 83.6132 cycles
LLC AVERAGE MSHR OCCUPANCY: 0.85006
LLC MSHR FULL: 0
LLC RQ	ACCESS:     129952	FORWARD:          0	MERGED:          0	TO_CACHE:     129952
LLC WQ	ACCESS:     209068	FORWARD:          0	MERGED:          0	TO_CACHE:     209068
LLC PQ	ACCESS:    3338590	FORWARD:          0	MERGED:          2	TO_CACHE:    3338588

LLC Dense regions hint to LLC: 0

RAW hits: 11174
Loads Generated: 58965275
Loads sent to L1D: 58954099
Stores Generated: 2967094
Stores sent to L1D: 2967095
Major fault: 0 Minor fault: 1462
Allocated PAGES: 1462
Total Load insts: 73705030
Total Non-spec loads: 6043436
Percentage of speculative loads: 91.8005

LeapFrogging counter: 0
Commit hits: 26562969 miss: 26544965
Commit hit %: 50.017 miss %: 49.983
Commits not translated: 0
Loads retired: 4021707
Stores retired: 2967095
Cache fills: 4021707
L1D response latency: 14.8915 cycles
Load retirement latency: 30.9263 cycles
OOO test counter: 0
Discarded buffer inserts: 26562969 hits: 19882 hit %: 0.0748486
Filter prediction accuracy: 99.2627
------------------
Depth Distribution
------------------
depth 0: 78443
depth 1: 4843
depth 2: 8236
depth 3: 12079
depth 4: 32120
depth 5: 713924
depth 6: 954324
depth 7: 1580023
depth 8: 861625
depth 9: 270116
depth 10: 163049
depth 11: 142884
depth 12: 122870
depth 13: 41291
depth 14: 31550
depth 15: 1064
depth 16: 238
depth 17: 38
depth 18: 2
depth 19: 0
depth 20: 0
depth 21: 0
depth 22: 0
depth 23: 0
depth 24: 0
depth 25: 0
depth 26: 0
depth 27: 0
depth 28: 0
depth 29: 0
Total: 5018719
------------------
ST read accesses: 3965273
ST write accesses: 56369
PT read accesses: 166740879
PT write accesses: 5887739
FILTER read accesses: 48727534
FILTER write accesses: 15062160
GHR read accesses: 19161292
GHR write accesses: 3365805
PERC read accesses: 1195470297
PERC write accesses: 38673818
GHR counter read accesses: 8043284
GHR counter write accesses: 12347365
GHR ip read accesses: 25265982
GHR ip write accesses: 16086568
ST tag read accesses: 1570553586
ST tag write accesses: 20385087

DRAM Statistics
 CHANNEL 0
 RQ ROW_BUFFER_HIT:    2865962  ROW_BUFFER_MISS:     397026
 DBUS_CONGESTED:       2760
 WQ ROW_BUFFER_HIT:      15860  ROW_BUFFER_MISS:     167867  FULL:          0

 AVG_CONGESTED_CYCLE: 4
 All warmup complete: 2
Channel 0 Bank busy for read cycles: 0
Channel 0 Bank busy for write cycles: 0
Channel 0
Rank 0
0banks busy for read cycles: 131328723
0banks busy for write cycles: 117052
1banks busy for read cycles: 26858896
1banks busy for write cycles: 15847190
2banks busy for read cycles: 12927353
2banks busy for write cycles: 4944126
3banks busy for read cycles: 9759648
3banks busy for write cycles: 2069725
4banks busy for read cycles: 7483137
4banks busy for write cycles: 693310
5banks busy for read cycles: 7365412
5banks busy for write cycles: 143387
6banks busy for read cycles: 5168938
6banks busy for write cycles: 19749
7banks busy for read cycles: 2454979
7banks busy for write cycles: 5548
8banks busy for read cycles: 739855
8banks busy for write cycles: 219

CPU 0 Branch Prediction Accuracy: 99.9889% MPKI: 0.030745 Average ROB Occupancy at Mispredict: 67.2604
Branch types
NOT_BRANCH: 144470849 72.2354%
BRANCH_DIRECT_JUMP: 10018 0.005009%
BRANCH_INDIRECT: 0 0%
BRANCH_CONDITIONAL: 52724213 26.3621%
BRANCH_DIRECT_CALL: 706558 0.353279%
BRANCH_INDIRECT_CALL: 690770 0.345385%
BRANCH_RETURN: 1397326 0.698663%
BRANCH_OTHER: 0 0%

DRAM PAGES: 1048576
Allocated PAGES: 1462
