Initialize SIGNATURE TABLE
ST_SET: 1
ST_WAY: 256
ST_TAG_BIT: 16
ST_TAG_MASK: ffff

Initialize PATTERN TABLE
PT_SET: 512
PT_WAY: 4
SIG_DELTA_BIT: 7
C_SIG_BIT: 4
C_DELTA_BIT: 4

Initialize PREFETCH FILTER
FILTER_SET: 1024

Initialize PERCEPTRON
PERC_ENTRIES: 4096
PERC_FEATURES: 9

*** ChampSim Multicore Out-of-Order Simulator ***

Warmup Instructions: 50000000
Simulation Instructions: 200000000
Number of CPUs: 1
LLC sets: 2048
LLC ways: 16
L0D sets: 16
L0D ways: 2
ROB size: 352
LQ size: 128
SQ size: 72
Secure Berti: OFF
Berti: OFF
Berti Fill: OFF
On commit prefetching: OFF
Hit-based filter: ON
Time-guarding: ON
Free-slotting: ON
Leap-frogging: ON
Train prefetcher on L0D bypass: OFF
No translation penalty for prefetchers: OFF
Prefetch to L0D only: OFF
Prefetch to L1D only: OFF
Clean evictions: ON
Commit loads: ON
Commit write: ON
Fill commit loads to L2C, LLC: ON
DRAM IO FREQUENCY: 6400
ROB SIZE: 352
Off-chip DRAM Size: 4096 MB Channels: 1 Width: 64-bit Data Rate: 6400 MT/s
CPU 0 runs /home/sumon/secure_berti/GhostMinion/../../traces/spec/654.roms_s-1390B.champsimtrace.xz
.xz
BTB has LRU replacement policy
ITLB has LRU replacement policy
DTLB has LRU replacement policy
STLB has LRU replacement policy
L1I has LRU replacement policy
L0D has LRU replacement policy
L1D has LRU replacement policy
PERC_ENTRIES: 4096
L2C has LRU replacement policy
LLC has LRU replacement policy
Heartbeat CPU 0 instructions: 10000001 cycles: 4211001 heartbeat IPC: 2.37473 cumulative IPC: 2.37473 (Simulation time: 0 hr 0 min 42 sec) 
Heartbeat CPU 0 instructions: 20000000 cycles: 7847796 heartbeat IPC: 2.74967 cumulative IPC: 2.54849 (Simulation time: 0 hr 1 min 12 sec) 
Heartbeat CPU 0 instructions: 30000003 cycles: 11264526 heartbeat IPC: 2.92678 cumulative IPC: 2.66323 (Simulation time: 0 hr 1 min 40 sec) 
Heartbeat CPU 0 instructions: 40000002 cycles: 15314422 heartbeat IPC: 2.4692 cumulative IPC: 2.61192 (Simulation time: 0 hr 2 min 18 sec) 
Heartbeat CPU 0 instructions: 50000000 cycles: 19950021 heartbeat IPC: 2.15722 cumulative IPC: 2.50626 (Simulation time: 0 hr 2 min 58 sec) 

Warmup complete CPU 0 instructions: 50000004 cycles: 19950022 (Simulation time: 0 hr 2 min 58 sec) 

Heartbeat CPU 0 instructions: 60000001 cycles: 32029885 heartbeat IPC: 0.827824 cumulative IPC: 0.827824 (Simulation time: 0 hr 3 min 29 sec) 
Heartbeat CPU 0 instructions: 70000003 cycles: 43394872 heartbeat IPC: 0.879896 cumulative IPC: 0.853066 (Simulation time: 0 hr 3 min 58 sec) 
Heartbeat CPU 0 instructions: 80000002 cycles: 54756003 heartbeat IPC: 0.880194 cumulative IPC: 0.861921 (Simulation time: 0 hr 4 min 26 sec) 
Heartbeat CPU 0 instructions: 90000003 cycles: 67357086 heartbeat IPC: 0.793583 cumulative IPC: 0.843756 (Simulation time: 0 hr 5 min 9 sec) 
Heartbeat CPU 0 instructions: 100000000 cycles: 81028186 heartbeat IPC: 0.73147 cumulative IPC: 0.818623 (Simulation time: 0 hr 5 min 49 sec) 
Heartbeat CPU 0 instructions: 110000000 cycles: 94301764 heartbeat IPC: 0.753376 cumulative IPC: 0.806975 (Simulation time: 0 hr 6 min 25 sec) 
Heartbeat CPU 0 instructions: 120000001 cycles: 106519781 heartbeat IPC: 0.818464 cumulative IPC: 0.808596 (Simulation time: 0 hr 6 min 53 sec) 
Heartbeat CPU 0 instructions: 130000000 cycles: 118483384 heartbeat IPC: 0.835869 cumulative IPC: 0.811908 (Simulation time: 0 hr 7 min 23 sec) 
Heartbeat CPU 0 instructions: 140000001 cycles: 133124301 heartbeat IPC: 0.683017 cumulative IPC: 0.795234 (Simulation time: 0 hr 8 min 15 sec) 
Heartbeat CPU 0 instructions: 150000000 cycles: 145657696 heartbeat IPC: 0.797868 cumulative IPC: 0.795496 (Simulation time: 0 hr 8 min 59 sec) 
Heartbeat CPU 0 instructions: 160000002 cycles: 155693651 heartbeat IPC: 0.996418 cumulative IPC: 0.810351 (Simulation time: 0 hr 9 min 55 sec) 
Heartbeat CPU 0 instructions: 170000000 cycles: 166200441 heartbeat IPC: 0.951765 cumulative IPC: 0.82051 (Simulation time: 0 hr 10 min 48 sec) 
Heartbeat CPU 0 instructions: 180000003 cycles: 176895745 heartbeat IPC: 0.93499 cumulative IPC: 0.828312 (Simulation time: 0 hr 11 min 38 sec) 
Heartbeat CPU 0 instructions: 190000000 cycles: 189356597 heartbeat IPC: 0.802513 cumulative IPC: 0.826414 (Simulation time: 0 hr 12 min 17 sec) 
Heartbeat CPU 0 instructions: 200000003 cycles: 204405220 heartbeat IPC: 0.664513 cumulative IPC: 0.813206 (Simulation time: 0 hr 12 min 52 sec) 
Heartbeat CPU 0 instructions: 210000002 cycles: 214439903 heartbeat IPC: 0.996544 cumulative IPC: 0.822665 (Simulation time: 0 hr 13 min 38 sec) 
Heartbeat CPU 0 instructions: 220000000 cycles: 227718148 heartbeat IPC: 0.753111 cumulative IPC: 0.81822 (Simulation time: 0 hr 14 min 24 sec) 
Heartbeat CPU 0 instructions: 230000002 cycles: 243013975 heartbeat IPC: 0.653773 cumulative IPC: 0.806943 (Simulation time: 0 hr 15 min 4 sec) 
Heartbeat CPU 0 instructions: 240000002 cycles: 254682625 heartbeat IPC: 0.856997 cumulative IPC: 0.809432 (Simulation time: 0 hr 15 min 47 sec) 
Heartbeat CPU 0 instructions: 250000003 cycles: 264743786 heartbeat IPC: 0.993921 cumulative IPC: 0.817014 (Simulation time: 0 hr 16 min 30 sec) 
Finished CPU 0 instructions: 200000003 cycles: 244793765 cumulative IPC: 0.817014 (Simulation time: 0 hr 16 min 30 sec) 
 Instruction ID: 250000117

ChampSim completed all CPUs

Region of Interest Statistics

CPU 0 cumulative IPC: 0.817014 instructions: 200000003 cycles: 244793765
ITLB SPEC fills:          0  NON-SPEC fills:          0
ITLB Test counter :          0
ITLB Leapfrog:          0
ITLB MSHR merge:          0
ITLB TOTAL     ACCESS:   29623012  HIT:   29623005  MISS:          7  HIT %:        100  MISS %: 2.36303e-05   MPKI: 3.5e-05
ITLB LOAD TRANSLATION NON_SPEC    ACCESS:   29623012  HIT:   29623005  MISS:          7  HIT %:        100  MISS %: 2.36303e-05   MPKI: 3.5e-05
ITLB PREFETCH  REQUESTED:          0  ISSUED:          0  USEFUL:          0  USELESS:          0
ITLB USEFUL LOAD PREFETCHES:          0 PREFETCH ISSUED TO LOWER LEVEL:          0  ACCURACY: -nan
ITLB TIMELY PREFETCHES:          0 LATE PREFETCHES: 0 DROPPED PREFETCHES: 0
ITLB COMMIT LATE PREFETCHES: 0 MISSED OPPORTUNITY: 0 LATE IN PQ: 0 UNCOVERED: 0
ITLB COMMIT LATE MSHR PREFETCHES: 0
ITLB MPKI TOTAL: 0 MSHR LATE: 0 PQ LATE: 0 COMMIT LATE: 0 MISSED OPPORTUNITY: 0 UNCOVERED: 0
ITLB PREFETCHES SAME FILL-ORIGIN LEVEL: 0 DIFFERENT FILL-ORIGIN LEVEL: 0
ITLB AVERAGE MISS LATENCY: 719.143 cycles
ITLB AVERAGE MISS LATENCY LOAD: -nan cycles
ITLB AVERAGE MISS LATENCY PREFETCH: -nan cycles
ITLB AVERAGE MSHR OCCUPANCY: 3.37575e-08
ITLB MSHR FULL: 0
ITLB RQ	ACCESS:   35481939	FORWARD:          0	MERGED:    5858925	TO_CACHE:   29623014

DTLB SPEC fills:          0  NON-SPEC fills:          0
DTLB Test counter :          0
DTLB Leapfrog:          0
DTLB MSHR merge:          0
DTLB TOTAL     ACCESS:   60464136  HIT:   60293509  MISS:     170627  HIT %:    99.7178  MISS %:   0.282195   MPKI: 0.853135
DTLB LOAD TRANSLATION NON_SPEC    ACCESS:   60464136  HIT:   60293509  MISS:     170627  HIT %:    99.7178  MISS %:   0.282195   MPKI: 0.853135
DTLB PREFETCH  REQUESTED:          0  ISSUED:          0  USEFUL:          0  USELESS:          0
DTLB USEFUL LOAD PREFETCHES:          0 PREFETCH ISSUED TO LOWER LEVEL:          0  ACCURACY: -nan
DTLB TIMELY PREFETCHES:          0 LATE PREFETCHES: 0 DROPPED PREFETCHES: 0
DTLB COMMIT LATE PREFETCHES: 0 MISSED OPPORTUNITY: 0 LATE IN PQ: 0 UNCOVERED: 0
DTLB COMMIT LATE MSHR PREFETCHES: 0
DTLB MPKI TOTAL: 0 MSHR LATE: 0 PQ LATE: 0 COMMIT LATE: 0 MISSED OPPORTUNITY: 0 UNCOVERED: 0
DTLB PREFETCHES SAME FILL-ORIGIN LEVEL: 0 DIFFERENT FILL-ORIGIN LEVEL: 0
DTLB AVERAGE MISS LATENCY: 174.403 cycles
DTLB AVERAGE MISS LATENCY LOAD: -nan cycles
DTLB AVERAGE MISS LATENCY PREFETCH: -nan cycles
DTLB AVERAGE MSHR OCCUPANCY: 0.114007
DTLB MSHR FULL: 0.00931717
DTLB RQ	ACCESS:   70601589	FORWARD:          0	MERGED:   10014631	TO_CACHE:   60586958

STLB SPEC fills:          0  NON-SPEC fills:          0
STLB Test counter :          0
STLB Leapfrog:          0
STLB MSHR merge:          0
STLB TOTAL     ACCESS:     170634  HIT:      55314  MISS:     115320  HIT %:    32.4168  MISS %:    67.5832   MPKI: 0.5766
STLB LOAD TRANSLATION NON_SPEC    ACCESS:     170634  HIT:      55314  MISS:     115320  HIT %:    32.4168  MISS %:    67.5832   MPKI: 0.5766
STLB PREFETCH  REQUESTED:          0  ISSUED:          0  USEFUL:          0  USELESS:          0
STLB USEFUL LOAD PREFETCHES:          0 PREFETCH ISSUED TO LOWER LEVEL:          0  ACCURACY: -nan
STLB TIMELY PREFETCHES:          0 LATE PREFETCHES: 0 DROPPED PREFETCHES: 0
STLB COMMIT LATE PREFETCHES: 0 MISSED OPPORTUNITY: 0 LATE IN PQ: 0 UNCOVERED: 0
STLB COMMIT LATE MSHR PREFETCHES: 0
STLB MPKI TOTAL: 0 MSHR LATE: 0 PQ LATE: 0 COMMIT LATE: 0 MISSED OPPORTUNITY: 0 UNCOVERED: 0
STLB PREFETCHES SAME FILL-ORIGIN LEVEL: 0 DIFFERENT FILL-ORIGIN LEVEL: 0
STLB AVERAGE MISS LATENCY: 244.478 cycles
STLB AVERAGE MISS LATENCY LOAD: -nan cycles
STLB AVERAGE MISS LATENCY PREFETCH: -nan cycles
STLB AVERAGE MSHR OCCUPANCY: 0.371192
STLB MSHR FULL: 0
STLB RQ	ACCESS:     170634	FORWARD:          0	MERGED:          0	TO_CACHE:     170634

STLB Hit, L1D data hit: 0
STLB Hit, L2C data hit: 0
STLB Hit, LLC data hit: 0
STLB Hit, LLC data miss: 0
STLB STLB hints to L2: 0
L0D SPEC fills:   31527352  NON-SPEC fills:          0
L0D TimeGuard Request with older TS:    2451921 Restricted eviction:    1950147 read:     945042
L0D Test counter :          0
L0D Leapfrog:          0
L0D MSHR merge:    4608222
L0D TOTAL     ACCESS:   53674415  HIT:   13989588  MISS:   39684827  HIT %:    26.0638  MISS %:    73.9362   MPKI: 198.424
L0D LOAD      TOTAL       ACCESS:   53674415  HIT:   13989588  MISS:   39684827  HIT %:    26.0638  MISS %:    73.9362   MPKI: 198.424
L0D LOAD      NON_SPEC    ACCESS:    6476560  HIT:     269119  MISS:    6207441  HIT %:    4.15528  MISS %:    95.8447   MPKI: 31.0372
L0D LOAD      SPEC        ACCESS:   47197855  HIT:   13720469  MISS:   33477386  HIT %:    29.0701  MISS %:    70.9299   MPKI: 167.387
L0D PREFETCH  REQUESTED:          0  ISSUED:          0  USEFUL:          0  USELESS:          0
L0D USEFUL LOAD PREFETCHES:          0 PREFETCH ISSUED TO LOWER LEVEL:          0  ACCURACY: -nan
L0D TIMELY PREFETCHES:          0 LATE PREFETCHES: 0 DROPPED PREFETCHES: 0
L0D COMMIT LATE PREFETCHES: 0 MISSED OPPORTUNITY: 0 LATE IN PQ: 0 UNCOVERED: 0
L0D COMMIT LATE MSHR PREFETCHES: 0
L0D MPKI TOTAL: 221.465 MSHR LATE: 0 PQ LATE: 0 COMMIT LATE: 0 MISSED OPPORTUNITY: 0 UNCOVERED: 0
L0D PREFETCHES SAME FILL-ORIGIN LEVEL: 0 DIFFERENT FILL-ORIGIN LEVEL: 0
L0D AVERAGE MISS LATENCY: 8.41681 cycles
L0D AVERAGE MISS LATENCY LOAD: 8.41681 cycles
L0D AVERAGE MISS LATENCY PREFETCH: -nan cycles
L0D AVERAGE MSHR OCCUPANCY: 1.86738
L0D MSHR FULL: 0.00509342
L0D RQ	ACCESS:   76742362	FORWARD:          0	MERGED:   18459727	TO_CACHE:   58282635
L0D WQ	ACCESS:   12318954	FORWARD:          0	MERGED:          0	TO_CACHE:   12318954

L1D SPEC fills:          0  NON-SPEC fills:     496573
L1D Test counter :          0
L1D Leapfrog:          0
L1D MSHR merge:      93086
L1D TOTAL     ACCESS:   53595555  HIT:   43527080  MISS:   10068475  HIT %:     81.214  MISS %:     18.786   MPKI: 50.3424
L1D LOAD      TOTAL       ACCESS:   39591741  HIT:   34679187  MISS:    4912554  HIT %:     87.592  MISS %:     12.408   MPKI: 24.5628
L1D LOAD      NON_SPEC    ACCESS:    6205798  HIT:    5709225  MISS:     496573  HIT %:    91.9982  MISS %:    8.00176   MPKI: 2.48286
L1D LOAD      SPEC        ACCESS:   33385943  HIT:   28969962  MISS:    4415981  HIT %:    86.7729  MISS %:    13.2271   MPKI: 22.0799
L1D RFO       NON_SPEC    ACCESS:    6446787  HIT:    5314059  MISS:    1132728  HIT %:    82.4296  MISS %:    17.5704   MPKI: 5.66364
L1D COMMIT LOAD NON_SPEC    ACCESS:    2934034  HIT:    2638221  MISS:     295813  HIT %:    89.9179  MISS %:    10.0821   MPKI: 1.47906
L1D COMMIT WRITE NON_SPEC    ACCESS:    4622993  HIT:     895613  MISS:    3727380  HIT %:     19.373  MISS %:     80.627   MPKI: 18.6369
L1D PREFETCH  REQUESTED:          0  ISSUED:          0  USEFUL:          0  USELESS:          0
L1D USEFUL LOAD PREFETCHES:          0 PREFETCH ISSUED TO LOWER LEVEL:          0  ACCURACY: -nan
L1D TIMELY PREFETCHES:          0 LATE PREFETCHES: 0 DROPPED PREFETCHES: 0
L1D COMMIT LATE PREFETCHES: 0 MISSED OPPORTUNITY: 0 LATE IN PQ: 0 UNCOVERED: 0
L1D COMMIT LATE MSHR PREFETCHES: 0
L1D MPKI TOTAL: 25.0282 MSHR LATE: 0 PQ LATE: 0 COMMIT LATE: 0 MISSED OPPORTUNITY: 0 UNCOVERED: 0
L1D PREFETCHES SAME FILL-ORIGIN LEVEL: 0 DIFFERENT FILL-ORIGIN LEVEL: 0
L1D AVERAGE MISS LATENCY: 56.6236 cycles
L1D AVERAGE MISS LATENCY LOAD: 25.6286 cycles
L1D AVERAGE MISS LATENCY PREFETCH: -nan cycles
L1D AVERAGE MSHR OCCUPANCY: 2.67489
L1D MSHR FULL: 0.0189269
L1D RQ	ACCESS:   44596574	FORWARD:          0	MERGED:    1778542	TO_CACHE:   42704744
L1D WQ	ACCESS:   16952532	FORWARD:     113288	MERGED:     160313	TO_CACHE:   16792219

L1D UNIQUE REGIONS ACCESSED: 0
L1D REGIONS CONFLICTS: 0
L1D Cross Page Prefetch Requests: 0
L1D Same Page Prefetch Requests: 0
L1D ROI Sum of L1D PQ occupancy: 0
L1D PREFETCHES PUSHED FROM L2C: 0
L1I SPEC fills:          0  NON-SPEC fills:          0
L1I Test counter :          0
L1I Leapfrog:          0
L1I MSHR merge:        357
L1I TOTAL     ACCESS:   35481580  HIT:   35480810  MISS:        770  HIT %:    99.9978  MISS %: 0.00217014   MPKI: 0.00385
L1I LOAD      TOTAL       ACCESS:   35481580  HIT:   35480810  MISS:        770  HIT %:    99.9978  MISS %: 0.00217014   MPKI: 0.00385
L1I LOAD      NON_SPEC    ACCESS:   35481580  HIT:   35480810  MISS:        770  HIT %:    99.9978  MISS %: 0.00217014   MPKI: 0.00385
L1I PREFETCH  REQUESTED:          0  ISSUED:          0  USEFUL:          0  USELESS:          0
L1I USEFUL LOAD PREFETCHES:          0 PREFETCH ISSUED TO LOWER LEVEL:          0  ACCURACY: -nan
L1I TIMELY PREFETCHES:          0 LATE PREFETCHES: 0 DROPPED PREFETCHES: 0
L1I COMMIT LATE PREFETCHES: 0 MISSED OPPORTUNITY: 0 LATE IN PQ: 0 UNCOVERED: 0
L1I COMMIT LATE MSHR PREFETCHES: 0
L1I MPKI TOTAL: 0.005635 MSHR LATE: 0 PQ LATE: 0 COMMIT LATE: 0 MISSED OPPORTUNITY: 0 UNCOVERED: 0
L1I PREFETCHES SAME FILL-ORIGIN LEVEL: 0 DIFFERENT FILL-ORIGIN LEVEL: 0
L1I AVERAGE MISS LATENCY: 276.068 cycles
L1I AVERAGE MISS LATENCY LOAD: 276.068 cycles
L1I AVERAGE MISS LATENCY PREFETCH: -nan cycles
L1I AVERAGE MSHR OCCUPANCY: 2.55341e-05
L1I MSHR FULL: 0
L1I RQ	ACCESS:   50095131	FORWARD:          0	MERGED:   14613192	TO_CACHE:   35481939

BTB SPEC fills:          0  NON-SPEC fills:          0
BTB Test counter :          0
BTB Leapfrog:          0
BTB MSHR merge:          0
BTB TOTAL     ACCESS:    7433877  HIT:    7433568  MISS:        309  HIT %:    99.9958  MISS %: 0.00415665   MPKI: 0.001545
BTB BRANCH_DIRECT_JUMP	ACCESS:       1193  HIT:       1166  MISS:         27
BTB BRANCH_INDIRECT	ACCESS:          0  HIT:          0  MISS:          0
BTB BRANCH_CONDITIONAL	ACCESS:    7432410  HIT:    7432253  MISS:        157
BTB BRANCH_DIRECT_CALL	ACCESS:        137  HIT:         76  MISS:         61
BTB BRANCH_INDIRECT_CALL	ACCESS:          0  HIT:          0  MISS:          0
BTB BRANCH_RETURN	ACCESS:        137  HIT:         73  MISS:         64
BTB BRANCH_OTHER ACCESS:          0  HIT:          0  MISS:          0

L2C SPEC fills:          0  NON-SPEC fills:      29547
L2C Test counter :          0
L2C Leapfrog:          0
L2C MSHR merge:     111142
L2C TOTAL     ACCESS:   14612097  HIT:    8959829  MISS:    5652268  HIT %:    61.3179  MISS %:    38.6821   MPKI: 28.2613
L2C LOAD      TOTAL       ACCESS:    4911590  HIT:    4639374  MISS:     272216  HIT %:    94.4577  MISS %:    5.54232   MPKI: 1.36108
L2C LOAD      NON_SPEC    ACCESS:     497303  HIT:     466986  MISS:      30317  HIT %:    93.9037  MISS %:    6.09628   MPKI: 0.151585
L2C LOAD      SPEC        ACCESS:    4414287  HIT:    4172388  MISS:     241899  HIT %:    94.5201  MISS %:    5.47991   MPKI: 1.20949
L2C RFO       NON_SPEC    ACCESS:    1132726  HIT:        199  MISS:    1132527  HIT %:  0.0175682  MISS %:    99.9824   MPKI: 5.66263
L2C PREFETCH  NON_SPEC    ACCESS:    5465333  HIT:    1467345  MISS:    3997988  HIT %:    26.8482  MISS %:    73.1518   MPKI: 19.9899
L2C WRITEBACK NON_SPEC    ACCESS:    1164301  HIT:    1164297  MISS:          4  HIT %:    99.9997  MISS %: 0.000343554   MPKI: 2e-05
L2C CLEAN_EVICTION NON_SPEC    ACCESS:    1065806  HIT:     849700  MISS:     216106  HIT %:    79.7237  MISS %:    20.2763   MPKI: 1.08053
L2C COMMIT LOAD NON_SPEC    ACCESS:     295813  HIT:     286612  MISS:       9201  HIT %:    96.8896  MISS %:    3.11041   MPKI: 0.046005
L2C LOAD TRANSLATION NON_SPEC    ACCESS:     576528  HIT:     552302  MISS:      24226  HIT %:    95.7979  MISS %:    4.20205   MPKI: 0.12113
L2C PREFETCH  REQUESTED:    5782288  ISSUED:    5782280  USEFUL:    3723260  USELESS:     274382
L2C USEFUL LOAD PREFETCHES:    3723260 PREFETCH ISSUED TO LOWER LEVEL:    4114639  ACCURACY: 90.4881
L2C TIMELY PREFETCHES:    3723260 LATE PREFETCHES: 111155 DROPPED PREFETCHES: 0
L2C COMMIT LATE PREFETCHES: 0 MISSED OPPORTUNITY: 0 LATE IN PQ: 0 UNCOVERED: 0
L2C COMMIT LATE MSHR PREFETCHES: 0
L2C MPKI TOTAL: 1.36108 MSHR LATE: 0.555775 PQ LATE: 0 COMMIT LATE: 0 MISSED OPPORTUNITY: 0 UNCOVERED: 0
L2C PREFETCHES SAME FILL-ORIGIN LEVEL: 4109157 DIFFERENT FILL-ORIGIN LEVEL: 5482
L2C AVERAGE MISS LATENCY: 345.127 cycles
L2C AVERAGE MISS LATENCY LOAD: 256.096 cycles
L2C AVERAGE MISS LATENCY PREFETCH: 362.943 cycles
L2C AVERAGE MSHR OCCUPANCY: 10.3437
L2C MSHR FULL: 0.0678452
L2C RQ	ACCESS:    6918398	FORWARD:          0	MERGED:          0	TO_CACHE:    6916662
L2C WQ	ACCESS:    2230129	FORWARD:       1762	MERGED:         22	TO_CACHE:    2230107
L2C PQ	ACCESS:    5782280	FORWARD:          0	MERGED:      17132	TO_CACHE:    5765122

L2C Instructions Evicting Data 769
L2C Translations Evicting Data 24111
L2C Data Evicting Data 5145415
L2C Instructions Evicting Instructions 0
L2C Translations Evicting Instructions 6
L2C Data Evicting Instructions 705
L2C Instructions Evicting Translations 1
L2C Translations Evicting Translations 109
L2C Data Evicting Translations 23143
L2C Dense regions hint from L2: 0
PSCL5 SPEC fills:          0  NON-SPEC fills:          0
PSCL5 Test counter :          0
PSCL5 Leapfrog:          0
PSCL5 MSHR merge:          0
PSCL5 TOTAL     ACCESS:          0  HIT:          0  MISS:          0  HIT %:       -nan  MISS %:       -nan   MPKI: 0
PSCL5 PREFETCH  REQUESTED:          0  ISSUED:          0  USEFUL:          0  USELESS:          0
PSCL5 USEFUL LOAD PREFETCHES:          0 PREFETCH ISSUED TO LOWER LEVEL:          0  ACCURACY: -nan
PSCL5 TIMELY PREFETCHES:          0 LATE PREFETCHES: 0 DROPPED PREFETCHES: 0
PSCL5 COMMIT LATE PREFETCHES: 0 MISSED OPPORTUNITY: 0 LATE IN PQ: 0 UNCOVERED: 0
PSCL5 COMMIT LATE MSHR PREFETCHES: 0
PSCL5 MPKI TOTAL: 0 MSHR LATE: 0 PQ LATE: 0 COMMIT LATE: 0 MISSED OPPORTUNITY: 0 UNCOVERED: 0
PSCL5 PREFETCHES SAME FILL-ORIGIN LEVEL: 0 DIFFERENT FILL-ORIGIN LEVEL: 0

PSCL4 SPEC fills:          0  NON-SPEC fills:          0
PSCL4 Test counter :          0
PSCL4 Leapfrog:          0
PSCL4 MSHR merge:          0
PSCL4 TOTAL     ACCESS:          0  HIT:          0  MISS:          0  HIT %:       -nan  MISS %:       -nan   MPKI: 0
PSCL4 PREFETCH  REQUESTED:          0  ISSUED:          0  USEFUL:          0  USELESS:          0
PSCL4 USEFUL LOAD PREFETCHES:          0 PREFETCH ISSUED TO LOWER LEVEL:          0  ACCURACY: -nan
PSCL4 TIMELY PREFETCHES:          0 LATE PREFETCHES: 0 DROPPED PREFETCHES: 0
PSCL4 COMMIT LATE PREFETCHES: 0 MISSED OPPORTUNITY: 0 LATE IN PQ: 0 UNCOVERED: 0
PSCL4 COMMIT LATE MSHR PREFETCHES: 0
PSCL4 MPKI TOTAL: 0 MSHR LATE: 0 PQ LATE: 0 COMMIT LATE: 0 MISSED OPPORTUNITY: 0 UNCOVERED: 0
PSCL4 PREFETCHES SAME FILL-ORIGIN LEVEL: 0 DIFFERENT FILL-ORIGIN LEVEL: 0

PSCL3 SPEC fills:          0  NON-SPEC fills:          0
PSCL3 Test counter :          0
PSCL3 Leapfrog:          0
PSCL3 MSHR merge:          0
PSCL3 TOTAL     ACCESS:          0  HIT:          0  MISS:          0  HIT %:       -nan  MISS %:       -nan   MPKI: 0
PSCL3 PREFETCH  REQUESTED:          0  ISSUED:          0  USEFUL:          0  USELESS:          0
PSCL3 USEFUL LOAD PREFETCHES:          0 PREFETCH ISSUED TO LOWER LEVEL:          0  ACCURACY: -nan
PSCL3 TIMELY PREFETCHES:          0 LATE PREFETCHES: 0 DROPPED PREFETCHES: 0
PSCL3 COMMIT LATE PREFETCHES: 0 MISSED OPPORTUNITY: 0 LATE IN PQ: 0 UNCOVERED: 0
PSCL3 COMMIT LATE MSHR PREFETCHES: 0
PSCL3 MPKI TOTAL: 0 MSHR LATE: 0 PQ LATE: 0 COMMIT LATE: 0 MISSED OPPORTUNITY: 0 UNCOVERED: 0
PSCL3 PREFETCHES SAME FILL-ORIGIN LEVEL: 0 DIFFERENT FILL-ORIGIN LEVEL: 0

PSCL2 SPEC fills:          0  NON-SPEC fills:          0
PSCL2 Test counter :          0
PSCL2 Leapfrog:          0
PSCL2 MSHR merge:          0
PSCL2 TOTAL     ACCESS:          0  HIT:          0  MISS:          0  HIT %:       -nan  MISS %:       -nan   MPKI: 0
PSCL2 PREFETCH  REQUESTED:          0  ISSUED:          0  USEFUL:          0  USELESS:          0
PSCL2 USEFUL LOAD PREFETCHES:          0 PREFETCH ISSUED TO LOWER LEVEL:          0  ACCURACY: -nan
PSCL2 TIMELY PREFETCHES:          0 LATE PREFETCHES: 0 DROPPED PREFETCHES: 0
PSCL2 COMMIT LATE PREFETCHES: 0 MISSED OPPORTUNITY: 0 LATE IN PQ: 0 UNCOVERED: 0
PSCL2 COMMIT LATE MSHR PREFETCHES: 0
PSCL2 MPKI TOTAL: 0 MSHR LATE: 0 PQ LATE: 0 COMMIT LATE: 0 MISSED OPPORTUNITY: 0 UNCOVERED: 0
PSCL2 PREFETCHES SAME FILL-ORIGIN LEVEL: 0 DIFFERENT FILL-ORIGIN LEVEL: 0

LLC SPEC fills:          0  NON-SPEC fills:      22921
LLC Test counter :          0
LLC Leapfrog:          0
LLC MSHR merge:          1
LLC TOTAL     ACCESS:    7661798  HIT:    2119491  MISS:    5542307  HIT %:    27.6631  MISS %:    72.3369   MPKI: 27.7115
LLC LOAD      TOTAL       ACCESS:     161074  HIT:       4267  MISS:     156807  HIT %:    2.64909  MISS %:    97.3509   MPKI: 0.784035
LLC LOAD      NON_SPEC    ACCESS:      23807  HIT:        116  MISS:      23691  HIT %:   0.487252  MISS %:    99.5127   MPKI: 0.118455
LLC LOAD      SPEC        ACCESS:     137267  HIT:       4151  MISS:     133116  HIT %:    3.02403  MISS %:     96.976   MPKI: 0.66558
LLC RFO       NON_SPEC    ACCESS:    1132522  HIT:         17  MISS:    1132505  HIT %: 0.00150107  MISS %:    99.9985   MPKI: 5.66252
LLC PREFETCH  NON_SPEC    ACCESS:    4114527  HIT:       6422  MISS:    4108105  HIT %:   0.156081  MISS %:    99.8439   MPKI: 20.5405
LLC WRITEBACK NON_SPEC    ACCESS:    1163776  HIT:    1163739  MISS:         37  HIT %:    99.9968  MISS %: 0.00317931   MPKI: 0.000185
LLC CLEAN_EVICTION NON_SPEC    ACCESS:    1056480  HIT:     941620  MISS:     114860  HIT %:     89.128  MISS %:     10.872   MPKI: 0.5743
LLC COMMIT LOAD NON_SPEC    ACCESS:       9193  HIT:       3416  MISS:       5777  HIT %:    37.1587  MISS %:    62.8413   MPKI: 0.028885
LLC LOAD TRANSLATION NON_SPEC    ACCESS:      24226  HIT:         10  MISS:      24216  HIT %:   0.041278  MISS %:    99.9587   MPKI: 0.12108
LLC PREFETCH  REQUESTED:          0  ISSUED:          0  USEFUL:       6460  USELESS:    4096201
LLC USEFUL LOAD PREFETCHES:       6460 PREFETCH ISSUED TO LOWER LEVEL:    4108119  ACCURACY: 0.15725
LLC TIMELY PREFETCHES:       6460 LATE PREFETCHES: 1 DROPPED PREFETCHES: 0
LLC COMMIT LATE PREFETCHES: 0 MISSED OPPORTUNITY: 0 LATE IN PQ: 0 UNCOVERED: 0
LLC COMMIT LATE MSHR PREFETCHES: 0
LLC MPKI TOTAL: 0.784035 MSHR LATE: 5e-06 PQ LATE: 0 COMMIT LATE: 0 MISSED OPPORTUNITY: 0 UNCOVERED: 0
LLC PREFETCHES SAME FILL-ORIGIN LEVEL: 2637 DIFFERENT FILL-ORIGIN LEVEL: 0
LLC AVERAGE MISS LATENCY: 331.802 cycles
LLC AVERAGE MISS LATENCY LOAD: 251.232 cycles
LLC AVERAGE MISS LATENCY PREFETCH: 341.983 cycles
LLC AVERAGE MSHR OCCUPANCY: 7.8557
LLC MSHR FULL: 0
LLC RQ	ACCESS:    1327020	FORWARD:          0	MERGED:          0	TO_CACHE:    1327020
LLC WQ	ACCESS:    2220257	FORWARD:          0	MERGED:          0	TO_CACHE:    2220257
LLC PQ	ACCESS:    4114639	FORWARD:          0	MERGED:          6	TO_CACHE:    4114633

LLC Dense regions hint to LLC: 0

RAW hits: 1660740
Loads Generated: 78403116
Loads sent to L1D: 76742362
Stores Generated: 12318965
Stores sent to L1D: 12318954
Major fault: 0 Minor fault: 55185
Allocated PAGES: 55185
Total Load insts: 115573145
Total Non-spec loads: 7505881
Percentage of speculative loads: 93.5055

LeapFrogging counter: 120796
Commit hits: 29642103 miss: 40286480
Commit hit %: 42.3891 miss %: 57.6109
Commits not translated: 0
Loads retired: 4912553
Stores retired: 12318954
Cache fills: 4912554
L1D response latency: 25.6286 cycles
Load retirement latency: 79.6974 cycles
OOO test counter: 0
Discarded buffer inserts: 29642103 hits: 157837 hit %: 0.532476
Filter prediction accuracy: 99.5775
------------------
Depth Distribution
------------------
depth 0: 37544
depth 1: 8239
depth 2: 10015
depth 3: 51685
depth 4: 215969
depth 5: 420392
depth 6: 1196425
depth 7: 985123
depth 8: 1271031
depth 9: 1307256
depth 10: 138984
depth 11: 354257
depth 12: 139876
depth 13: 24921
depth 14: 145037
depth 15: 13887
depth 16: 8111
depth 17: 3286
depth 18: 1566
depth 19: 116
depth 20: 7
depth 21: 0
depth 22: 0
depth 23: 0
depth 24: 0
depth 25: 0
depth 26: 0
depth 27: 0
depth 28: 0
depth 29: 0
Total: 6333727
------------------
ST read accesses: 4814640
ST write accesses: 96180
PT read accesses: 213101535
PT write accesses: 6547536
FILTER read accesses: 45613867
FILTER write accesses: 20708736
GHR read accesses: 17119881
GHR write accesses: 2909002
PERC read accesses: 1543828140
PERC write accesses: 47058045
GHR counter read accesses: 9821640
GHR counter write accesses: 15143862
GHR ip read accesses: 32176917
GHR ip write accesses: 19643280
ST tag read accesses: 1938396204
ST tag write accesses: 53574456

DRAM Statistics
 CHANNEL 0
 RQ ROW_BUFFER_HIT:    1099267  ROW_BUFFER_MISS:    4328144
 DBUS_CONGESTED:        191
 WQ ROW_BUFFER_HIT:     419803  ROW_BUFFER_MISS:    1804667  FULL:       2715

 AVG_CONGESTED_CYCLE: 5
 All warmup complete: 2
Channel 0 Bank busy for read cycles: 0
Channel 0 Bank busy for write cycles: 0
Channel 0
Rank 0
0banks busy for read cycles: 7601645
0banks busy for write cycles: 13225
1banks busy for read cycles: 22800266
1banks busy for write cycles: 2030884
2banks busy for read cycles: 29137743
2banks busy for write cycles: 861006
3banks busy for read cycles: 28861838
3banks busy for write cycles: 538078
4banks busy for read cycles: 24783226
4banks busy for write cycles: 483501
5banks busy for read cycles: 19808554
5banks busy for write cycles: 536402
6banks busy for read cycles: 16129732
6banks busy for write cycles: 786697
7banks busy for read cycles: 13856655
7banks busy for write cycles: 4529093
8banks busy for read cycles: 23277392
8banks busy for write cycles: 48757829

CPU 0 Branch Prediction Accuracy: 99.7722% MPKI: 0.08495 Average ROB Occupancy at Mispredict: 100.276
Branch types
NOT_BRANCH: 192541251 96.2706%
BRANCH_DIRECT_JUMP: 1193 0.0005965%
BRANCH_INDIRECT: 0 0%
BRANCH_CONDITIONAL: 7457356 3.72868%
BRANCH_DIRECT_CALL: 137 6.85e-05%
BRANCH_INDIRECT_CALL: 0 0%
BRANCH_RETURN: 137 6.85e-05%
BRANCH_OTHER: 0 0%

DRAM PAGES: 1048576
Allocated PAGES: 55185
