Initialize SIGNATURE TABLE
ST_SET: 1
ST_WAY: 256
ST_TAG_BIT: 16
ST_TAG_MASK: ffff

Initialize PATTERN TABLE
PT_SET: 512
PT_WAY: 4
SIG_DELTA_BIT: 7
C_SIG_BIT: 4
C_DELTA_BIT: 4

Initialize PREFETCH FILTER
FILTER_SET: 1024

Initialize PERCEPTRON
PERC_ENTRIES: 4096
PERC_FEATURES: 9

*** ChampSim Multicore Out-of-Order Simulator ***

Warmup Instructions: 50000000
Simulation Instructions: 200000000
Number of CPUs: 1
LLC sets: 2048
LLC ways: 16
L0D sets: 16
L0D ways: 2
ROB size: 352
LQ size: 128
SQ size: 72
Secure Berti: OFF
Berti: OFF
Berti Fill: OFF
On commit prefetching: OFF
Hit-based filter: ON
Time-guarding: ON
Free-slotting: ON
Leap-frogging: ON
Train prefetcher on L0D bypass: OFF
No translation penalty for prefetchers: OFF
Prefetch to L0D only: OFF
Prefetch to L1D only: OFF
Clean evictions: ON
Commit loads: ON
Commit write: ON
Fill commit loads to L2C, LLC: ON
DRAM IO FREQUENCY: 6400
ROB SIZE: 352
Off-chip DRAM Size: 4096 MB Channels: 1 Width: 64-bit Data Rate: 6400 MT/s
CPU 0 runs /home/sumon/secure_berti/GhostMinion/../../traces/spec/654.roms_s-1070B.champsimtrace.xz
.xz
BTB has LRU replacement policy
ITLB has LRU replacement policy
DTLB has LRU replacement policy
STLB has LRU replacement policy
L1I has LRU replacement policy
L0D has LRU replacement policy
L1D has LRU replacement policy
PERC_ENTRIES: 4096
L2C has LRU replacement policy
LLC has LRU replacement policy
Heartbeat CPU 0 instructions: 10000002 cycles: 4632897 heartbeat IPC: 2.15848 cumulative IPC: 2.15848 (Simulation time: 0 hr 0 min 33 sec) 
Heartbeat CPU 0 instructions: 20000002 cycles: 8569126 heartbeat IPC: 2.5405 cumulative IPC: 2.33396 (Simulation time: 0 hr 1 min 5 sec) 
Heartbeat CPU 0 instructions: 30000003 cycles: 11794692 heartbeat IPC: 3.10023 cumulative IPC: 2.54352 (Simulation time: 0 hr 1 min 36 sec) 
Heartbeat CPU 0 instructions: 40000001 cycles: 17136527 heartbeat IPC: 1.87202 cumulative IPC: 2.3342 (Simulation time: 0 hr 2 min 9 sec) 
Heartbeat CPU 0 instructions: 50000001 cycles: 20484462 heartbeat IPC: 2.98692 cumulative IPC: 2.44087 (Simulation time: 0 hr 2 min 41 sec) 

Warmup complete CPU 0 instructions: 50000001 cycles: 20484462 (Simulation time: 0 hr 2 min 41 sec) 

Heartbeat CPU 0 instructions: 60000000 cycles: 34517287 heartbeat IPC: 0.712615 cumulative IPC: 0.712615 (Simulation time: 0 hr 3 min 30 sec) 
Heartbeat CPU 0 instructions: 70000002 cycles: 43787546 heartbeat IPC: 1.07872 cumulative IPC: 0.858256 (Simulation time: 0 hr 4 min 8 sec) 
Heartbeat CPU 0 instructions: 80000003 cycles: 55073255 heartbeat IPC: 0.886076 cumulative IPC: 0.867333 (Simulation time: 0 hr 4 min 51 sec) 
Heartbeat CPU 0 instructions: 90000000 cycles: 67148015 heartbeat IPC: 0.828174 cumulative IPC: 0.8572 (Simulation time: 0 hr 5 min 39 sec) 
Heartbeat CPU 0 instructions: 100000003 cycles: 75912629 heartbeat IPC: 1.14095 cumulative IPC: 0.902068 (Simulation time: 0 hr 6 min 17 sec) 
Heartbeat CPU 0 instructions: 110000000 cycles: 90350539 heartbeat IPC: 0.692621 cumulative IPC: 0.858786 (Simulation time: 0 hr 7 min 10 sec) 
Heartbeat CPU 0 instructions: 120000002 cycles: 99131073 heartbeat IPC: 1.13888 cumulative IPC: 0.890057 (Simulation time: 0 hr 7 min 49 sec) 
Heartbeat CPU 0 instructions: 130000002 cycles: 111026666 heartbeat IPC: 0.840647 cumulative IPC: 0.883566 (Simulation time: 0 hr 8 min 34 sec) 
Heartbeat CPU 0 instructions: 140000001 cycles: 122356332 heartbeat IPC: 0.882638 cumulative IPC: 0.883463 (Simulation time: 0 hr 9 min 21 sec) 
Heartbeat CPU 0 instructions: 150000003 cycles: 131179004 heartbeat IPC: 1.13344 cumulative IPC: 0.903387 (Simulation time: 0 hr 10 min 0 sec) 
Heartbeat CPU 0 instructions: 160000000 cycles: 145524528 heartbeat IPC: 0.697081 cumulative IPC: 0.879718 (Simulation time: 0 hr 10 min 54 sec) 
Heartbeat CPU 0 instructions: 170000000 cycles: 154252760 heartbeat IPC: 1.14571 cumulative IPC: 0.897074 (Simulation time: 0 hr 11 min 34 sec) 
Heartbeat CPU 0 instructions: 180000002 cycles: 166914846 heartbeat IPC: 0.789759 cumulative IPC: 0.887794 (Simulation time: 0 hr 12 min 23 sec) 
Heartbeat CPU 0 instructions: 190000000 cycles: 177598624 heartbeat IPC: 0.935998 cumulative IPC: 0.891072 (Simulation time: 0 hr 13 min 5 sec) 
Heartbeat CPU 0 instructions: 200000000 cycles: 187806743 heartbeat IPC: 0.979612 cumulative IPC: 0.896474 (Simulation time: 0 hr 13 min 44 sec) 
Heartbeat CPU 0 instructions: 210000001 cycles: 201860970 heartbeat IPC: 0.71153 cumulative IPC: 0.882143 (Simulation time: 0 hr 14 min 31 sec) 
Heartbeat CPU 0 instructions: 220000000 cycles: 214072877 heartbeat IPC: 0.818873 cumulative IPC: 0.878152 (Simulation time: 0 hr 15 min 8 sec) 
Heartbeat CPU 0 instructions: 230000002 cycles: 228165087 heartbeat IPC: 0.709612 cumulative IPC: 0.866715 (Simulation time: 0 hr 15 min 49 sec) 
Heartbeat CPU 0 instructions: 240000000 cycles: 241039967 heartbeat IPC: 0.776706 cumulative IPC: 0.861461 (Simulation time: 0 hr 16 min 25 sec) 
Heartbeat CPU 0 instructions: 250000001 cycles: 253562837 heartbeat IPC: 0.798539 cumulative IPC: 0.85808 (Simulation time: 0 hr 16 min 58 sec) 
Finished CPU 0 instructions: 200000000 cycles: 233078375 cumulative IPC: 0.858081 (Simulation time: 0 hr 16 min 58 sec) 
 Instruction ID: 250000029

ChampSim completed all CPUs

Region of Interest Statistics

CPU 0 cumulative IPC: 0.858081 instructions: 200000000 cycles: 233078375
ITLB SPEC fills:          0  NON-SPEC fills:          0
ITLB Test counter :          0
ITLB Leapfrog:          0
ITLB MSHR merge:          0
ITLB TOTAL     ACCESS:   29045472  HIT:   29045471  MISS:          1  HIT %:        100  MISS %: 3.44288e-06   MPKI: 5e-06
ITLB LOAD TRANSLATION NON_SPEC    ACCESS:   29045472  HIT:   29045471  MISS:          1  HIT %:        100  MISS %: 3.44288e-06   MPKI: 5e-06
ITLB PREFETCH  REQUESTED:          0  ISSUED:          0  USEFUL:          0  USELESS:          0
ITLB USEFUL LOAD PREFETCHES:          0 PREFETCH ISSUED TO LOWER LEVEL:          0  ACCURACY: -nan
ITLB TIMELY PREFETCHES:          0 LATE PREFETCHES: 0 DROPPED PREFETCHES: 0
ITLB COMMIT LATE PREFETCHES: 0 MISSED OPPORTUNITY: 0 LATE IN PQ: 0 UNCOVERED: 0
ITLB COMMIT LATE MSHR PREFETCHES: 0
ITLB MPKI TOTAL: 0 MSHR LATE: 0 PQ LATE: 0 COMMIT LATE: 0 MISSED OPPORTUNITY: 0 UNCOVERED: 0
ITLB PREFETCHES SAME FILL-ORIGIN LEVEL: 0 DIFFERENT FILL-ORIGIN LEVEL: 0
ITLB AVERAGE MISS LATENCY: 564 cycles
ITLB AVERAGE MISS LATENCY LOAD: -nan cycles
ITLB AVERAGE MISS LATENCY PREFETCH: -nan cycles
ITLB AVERAGE MSHR OCCUPANCY: 0
ITLB MSHR FULL: 0
ITLB RQ	ACCESS:   33273531	FORWARD:          0	MERGED:    4228059	TO_CACHE:   29045472

DTLB SPEC fills:          0  NON-SPEC fills:          0
DTLB Test counter :          0
DTLB Leapfrog:          0
DTLB MSHR merge:          0
DTLB TOTAL     ACCESS:   57104232  HIT:   56998530  MISS:     105702  HIT %:    99.8149  MISS %:   0.185104   MPKI: 0.52851
DTLB LOAD TRANSLATION NON_SPEC    ACCESS:   57104232  HIT:   56998530  MISS:     105702  HIT %:    99.8149  MISS %:   0.185104   MPKI: 0.52851
DTLB PREFETCH  REQUESTED:          0  ISSUED:          0  USEFUL:          0  USELESS:          0
DTLB USEFUL LOAD PREFETCHES:          0 PREFETCH ISSUED TO LOWER LEVEL:          0  ACCURACY: -nan
DTLB TIMELY PREFETCHES:          0 LATE PREFETCHES: 0 DROPPED PREFETCHES: 0
DTLB COMMIT LATE PREFETCHES: 0 MISSED OPPORTUNITY: 0 LATE IN PQ: 0 UNCOVERED: 0
DTLB COMMIT LATE MSHR PREFETCHES: 0
DTLB MPKI TOTAL: 0 MSHR LATE: 0 PQ LATE: 0 COMMIT LATE: 0 MISSED OPPORTUNITY: 0 UNCOVERED: 0
DTLB PREFETCHES SAME FILL-ORIGIN LEVEL: 0 DIFFERENT FILL-ORIGIN LEVEL: 0
DTLB AVERAGE MISS LATENCY: 247.99 cycles
DTLB AVERAGE MISS LATENCY LOAD: -nan cycles
DTLB AVERAGE MISS LATENCY PREFETCH: -nan cycles
DTLB AVERAGE MSHR OCCUPANCY: 0.0345076
DTLB MSHR FULL: 9.89687e-05
DTLB RQ	ACCESS:   64791442	FORWARD:          0	MERGED:    7546647	TO_CACHE:   57244795

STLB SPEC fills:          0  NON-SPEC fills:          0
STLB Test counter :          0
STLB Leapfrog:          0
STLB MSHR merge:          0
STLB TOTAL     ACCESS:     105703  HIT:       9489  MISS:      96214  HIT %:    8.97704  MISS %:     91.023   MPKI: 0.48107
STLB LOAD TRANSLATION NON_SPEC    ACCESS:     105703  HIT:       9489  MISS:      96214  HIT %:    8.97704  MISS %:     91.023   MPKI: 0.48107
STLB PREFETCH  REQUESTED:          0  ISSUED:          0  USEFUL:          0  USELESS:          0
STLB USEFUL LOAD PREFETCHES:          0 PREFETCH ISSUED TO LOWER LEVEL:          0  ACCURACY: -nan
STLB TIMELY PREFETCHES:          0 LATE PREFETCHES: 0 DROPPED PREFETCHES: 0
STLB COMMIT LATE PREFETCHES: 0 MISSED OPPORTUNITY: 0 LATE IN PQ: 0 UNCOVERED: 0
STLB COMMIT LATE MSHR PREFETCHES: 0
STLB MPKI TOTAL: 0 MSHR LATE: 0 PQ LATE: 0 COMMIT LATE: 0 MISSED OPPORTUNITY: 0 UNCOVERED: 0
STLB PREFETCHES SAME FILL-ORIGIN LEVEL: 0 DIFFERENT FILL-ORIGIN LEVEL: 0
STLB AVERAGE MISS LATENCY: 262.435 cycles
STLB AVERAGE MISS LATENCY LOAD: -nan cycles
STLB AVERAGE MISS LATENCY PREFETCH: -nan cycles
STLB AVERAGE MSHR OCCUPANCY: 0.470412
STLB MSHR FULL: 0
STLB RQ	ACCESS:     105703	FORWARD:          0	MERGED:          0	TO_CACHE:     105703

STLB Hit, L1D data hit: 0
STLB Hit, L2C data hit: 0
STLB Hit, LLC data hit: 0
STLB Hit, LLC data miss: 0
STLB STLB hints to L2: 0
L0D SPEC fills:   31417017  NON-SPEC fills:          0
L0D TimeGuard Request with older TS:    3498086 Restricted eviction:     844237 read:     273059
L0D Test counter :          0
L0D Leapfrog:          0
L0D MSHR merge:    2269895
L0D TOTAL     ACCESS:   51802264  HIT:   11350147  MISS:   40452117  HIT %:    21.9105  MISS %:    78.0895   MPKI: 202.261
L0D LOAD      TOTAL       ACCESS:   51802264  HIT:   11350147  MISS:   40452117  HIT %:    21.9105  MISS %:    78.0895   MPKI: 202.261
L0D LOAD      NON_SPEC    ACCESS:    8288978  HIT:      98115  MISS:    8190863  HIT %:    1.18368  MISS %:    98.8163   MPKI: 40.9543
L0D LOAD      SPEC        ACCESS:   43513286  HIT:   11252032  MISS:   32261254  HIT %:    25.8588  MISS %:    74.1412   MPKI: 161.306
L0D PREFETCH  REQUESTED:          0  ISSUED:          0  USEFUL:          0  USELESS:          0
L0D USEFUL LOAD PREFETCHES:          0 PREFETCH ISSUED TO LOWER LEVEL:          0  ACCURACY: -nan
L0D TIMELY PREFETCHES:          0 LATE PREFETCHES: 0 DROPPED PREFETCHES: 0
L0D COMMIT LATE PREFETCHES: 0 MISSED OPPORTUNITY: 0 LATE IN PQ: 0 UNCOVERED: 0
L0D COMMIT LATE MSHR PREFETCHES: 0
L0D MPKI TOTAL: 213.61 MSHR LATE: 0 PQ LATE: 0 COMMIT LATE: 0 MISSED OPPORTUNITY: 0 UNCOVERED: 0
L0D PREFETCHES SAME FILL-ORIGIN LEVEL: 0 DIFFERENT FILL-ORIGIN LEVEL: 0
L0D AVERAGE MISS LATENCY: 7.6077 cycles
L0D AVERAGE MISS LATENCY LOAD: 7.6077 cycles
L0D AVERAGE MISS LATENCY PREFETCH: -nan cycles
L0D AVERAGE MSHR OCCUPANCY: 1.45801
L0D MSHR FULL: 0.000358697
L0D RQ	ACCESS:   73913360	FORWARD:          0	MERGED:   19841205	TO_CACHE:   54072155
L0D WQ	ACCESS:   10719287	FORWARD:          0	MERGED:          0	TO_CACHE:   10719287

L1D SPEC fills:          0  NON-SPEC fills:     260012
L1D Test counter :          0
L1D Leapfrog:          0
L1D MSHR merge:     154205
L1D TOTAL     ACCESS:   48398261  HIT:   40292892  MISS:    8105369  HIT %:    83.2528  MISS %:    16.7472   MPKI: 40.5268
L1D LOAD      TOTAL       ACCESS:   40297911  HIT:   36681964  MISS:    3615947  HIT %:     91.027  MISS %:    8.97304   MPKI: 18.0797
L1D LOAD      NON_SPEC    ACCESS:    8187668  HIT:    7927656  MISS:     260012  HIT %:    96.8243  MISS %:    3.17565   MPKI: 1.30006
L1D LOAD      SPEC        ACCESS:   32110243  HIT:   28754308  MISS:    3355935  HIT %:    89.5487  MISS %:    10.4513   MPKI: 16.7797
L1D RFO       NON_SPEC    ACCESS:    2479293  HIT:    1130758  MISS:    1348535  HIT %:    45.6081  MISS %:    54.3919   MPKI: 6.74268
L1D COMMIT LOAD NON_SPEC    ACCESS:    1960538  HIT:    1638225  MISS:     322313  HIT %:      83.56  MISS %:      16.44   MPKI: 1.61156
L1D COMMIT WRITE NON_SPEC    ACCESS:    3660519  HIT:     841945  MISS:    2818574  HIT %:    23.0007  MISS %:    76.9993   MPKI: 14.0929
L1D PREFETCH  REQUESTED:          0  ISSUED:          0  USEFUL:          0  USELESS:          0
L1D USEFUL LOAD PREFETCHES:          0 PREFETCH ISSUED TO LOWER LEVEL:          0  ACCURACY: -nan
L1D TIMELY PREFETCHES:          0 LATE PREFETCHES: 0 DROPPED PREFETCHES: 0
L1D COMMIT LATE PREFETCHES: 0 MISSED OPPORTUNITY: 0 LATE IN PQ: 0 UNCOVERED: 0
L1D COMMIT LATE MSHR PREFETCHES: 0
L1D MPKI TOTAL: 18.8508 MSHR LATE: 0 PQ LATE: 0 COMMIT LATE: 0 MISSED OPPORTUNITY: 0 UNCOVERED: 0
L1D PREFETCHES SAME FILL-ORIGIN LEVEL: 0 DIFFERENT FILL-ORIGIN LEVEL: 0
L1D AVERAGE MISS LATENCY: 73.69 cycles
L1D AVERAGE MISS LATENCY LOAD: 24.4048 cycles
L1D AVERAGE MISS LATENCY PREFETCH: -nan cycles
L1D AVERAGE MSHR OCCUPANCY: 3.55002
L1D MSHR FULL: 0.119766
L1D RQ	ACCESS:   43382938	FORWARD:          0	MERGED:     866354	TO_CACHE:   42466427
L1D WQ	ACCESS:   14396363	FORWARD:      50157	MERGED:      16560	TO_CACHE:   14379803

L1D UNIQUE REGIONS ACCESSED: 0
L1D REGIONS CONFLICTS: 0
L1D Cross Page Prefetch Requests: 0
L1D Same Page Prefetch Requests: 0
L1D ROI Sum of L1D PQ occupancy: 0
L1D PREFETCHES PUSHED FROM L2C: 0
L1I SPEC fills:          0  NON-SPEC fills:          0
L1I Test counter :          0
L1I Leapfrog:          0
L1I MSHR merge:         25
L1I TOTAL     ACCESS:   33273506  HIT:   33273456  MISS:         50  HIT %:    99.9998  MISS %: 0.00015027   MPKI: 0.00025
L1I LOAD      TOTAL       ACCESS:   33273506  HIT:   33273456  MISS:         50  HIT %:    99.9998  MISS %: 0.00015027   MPKI: 0.00025
L1I LOAD      NON_SPEC    ACCESS:   33273506  HIT:   33273456  MISS:         50  HIT %:    99.9998  MISS %: 0.00015027   MPKI: 0.00025
L1I PREFETCH  REQUESTED:          0  ISSUED:          0  USEFUL:          0  USELESS:          0
L1I USEFUL LOAD PREFETCHES:          0 PREFETCH ISSUED TO LOWER LEVEL:          0  ACCURACY: -nan
L1I TIMELY PREFETCHES:          0 LATE PREFETCHES: 0 DROPPED PREFETCHES: 0
L1I COMMIT LATE PREFETCHES: 0 MISSED OPPORTUNITY: 0 LATE IN PQ: 0 UNCOVERED: 0
L1I COMMIT LATE MSHR PREFETCHES: 0
L1I MPKI TOTAL: 0.000375 MSHR LATE: 0 PQ LATE: 0 COMMIT LATE: 0 MISSED OPPORTUNITY: 0 UNCOVERED: 0
L1I PREFETCHES SAME FILL-ORIGIN LEVEL: 0 DIFFERENT FILL-ORIGIN LEVEL: 0
L1I AVERAGE MISS LATENCY: 251.32 cycles
L1I AVERAGE MISS LATENCY LOAD: 251.32 cycles
L1I AVERAGE MISS LATENCY PREFETCH: -nan cycles
L1I AVERAGE MSHR OCCUPANCY: 2.04367e-06
L1I MSHR FULL: 0
L1I RQ	ACCESS:   52222169	FORWARD:          0	MERGED:   18948638	TO_CACHE:   33273531

BTB SPEC fills:          0  NON-SPEC fills:          0
BTB Test counter :          0
BTB Leapfrog:          0
BTB MSHR merge:          0
BTB TOTAL     ACCESS:   10637189  HIT:   10637168  MISS:         21  HIT %:    99.9998  MISS %: 0.000197421   MPKI: 0.000105
BTB BRANCH_DIRECT_JUMP	ACCESS:      26624  HIT:      26622  MISS:          2
BTB BRANCH_INDIRECT	ACCESS:          0  HIT:          0  MISS:          0
BTB BRANCH_CONDITIONAL	ACCESS:   10610565  HIT:   10610546  MISS:         19
BTB BRANCH_DIRECT_CALL	ACCESS:          0  HIT:          0  MISS:          0
BTB BRANCH_INDIRECT_CALL	ACCESS:          0  HIT:          0  MISS:          0
BTB BRANCH_RETURN	ACCESS:          0  HIT:          0  MISS:          0
BTB BRANCH_OTHER ACCESS:          0  HIT:          0  MISS:          0

L2C SPEC fills:          0  NON-SPEC fills:       9124
L2C Test counter :          0
L2C Leapfrog:          0
L2C MSHR merge:      53120
L2C TOTAL     ACCESS:   11835052  HIT:    7146043  MISS:    4689009  HIT %:    60.3803  MISS %:    39.6197   MPKI: 23.445
L2C LOAD      TOTAL       ACCESS:    3615952  HIT:    3437844  MISS:     178108  HIT %:    95.0744  MISS %:    4.92562   MPKI: 0.89054
L2C LOAD      NON_SPEC    ACCESS:     260062  HIT:     250888  MISS:       9174  HIT %:    96.4724  MISS %:    3.52762   MPKI: 0.04587
L2C LOAD      SPEC        ACCESS:    3355890  HIT:    3186956  MISS:     168934  HIT %:     94.966  MISS %:    5.03396   MPKI: 0.84467
L2C RFO       NON_SPEC    ACCESS:    1348535  HIT:          5  MISS:    1348530  HIT %: 0.000370773  MISS %:    99.9996   MPKI: 6.74265
L2C PREFETCH  NON_SPEC    ACCESS:    4131923  HIT:    1148145  MISS:    2983778  HIT %:    27.7872  MISS %:    72.2128   MPKI: 14.9189
L2C WRITEBACK NON_SPEC    ACCESS:    1348920  HIT:    1348919  MISS:          1  HIT %:    99.9999  MISS %: 7.41334e-05   MPKI: 5e-06
L2C CLEAN_EVICTION NON_SPEC    ACCESS:     586490  HIT:     432195  MISS:     154295  HIT %:    73.6918  MISS %:    26.3082   MPKI: 0.771475
L2C COMMIT LOAD NON_SPEC    ACCESS:     322313  HIT:     317665  MISS:       4648  HIT %:    98.5579  MISS %:    1.44208   MPKI: 0.02324
L2C LOAD TRANSLATION NON_SPEC    ACCESS:     480919  HIT:     461270  MISS:      19649  HIT %:    95.9143  MISS %:    4.08572   MPKI: 0.098245
L2C PREFETCH  REQUESTED:    4245334  ISSUED:    4245334  USEFUL:    2795589  USELESS:     188261
L2C USEFUL LOAD PREFETCHES:    2795589 PREFETCH ISSUED TO LOWER LEVEL:    3037250  ACCURACY: 92.0434
L2C TIMELY PREFETCHES:    2795589 LATE PREFETCHES: 53126 DROPPED PREFETCHES: 0
L2C COMMIT LATE PREFETCHES: 0 MISSED OPPORTUNITY: 0 LATE IN PQ: 0 UNCOVERED: 0
L2C COMMIT LATE MSHR PREFETCHES: 0
L2C MPKI TOTAL: 0.89054 MSHR LATE: 0.26563 PQ LATE: 0 COMMIT LATE: 0 MISSED OPPORTUNITY: 0 UNCOVERED: 0
L2C PREFETCHES SAME FILL-ORIGIN LEVEL: 3036910 DIFFERENT FILL-ORIGIN LEVEL: 340
L2C AVERAGE MISS LATENCY: 317.421 cycles
L2C AVERAGE MISS LATENCY LOAD: 261.139 cycles
L2C AVERAGE MISS LATENCY PREFETCH: 318.994 cycles
L2C AVERAGE MSHR OCCUPANCY: 7.55973
L2C MSHR FULL: 0.038303
L2C RQ	ACCESS:    5767773	FORWARD:          0	MERGED:          0	TO_CACHE:    5767728
L2C WQ	ACCESS:    1935410	FORWARD:         49	MERGED:          0	TO_CACHE:    1935410
L2C PQ	ACCESS:    4245334	FORWARD:          0	MERGED:       2332	TO_CACHE:    4242998

L2C Instructions Evicting Data 50
L2C Translations Evicting Data 19602
L2C Data Evicting Data 4327119
L2C Instructions Evicting Instructions 0
L2C Translations Evicting Instructions 1
L2C Data Evicting Instructions 48
L2C Instructions Evicting Translations 0
L2C Translations Evicting Translations 46
L2C Data Evicting Translations 18913
L2C Dense regions hint from L2: 0
PSCL5 SPEC fills:          0  NON-SPEC fills:          0
PSCL5 Test counter :          0
PSCL5 Leapfrog:          0
PSCL5 MSHR merge:          0
PSCL5 TOTAL     ACCESS:          0  HIT:          0  MISS:          0  HIT %:       -nan  MISS %:       -nan   MPKI: 0
PSCL5 PREFETCH  REQUESTED:          0  ISSUED:          0  USEFUL:          0  USELESS:          0
PSCL5 USEFUL LOAD PREFETCHES:          0 PREFETCH ISSUED TO LOWER LEVEL:          0  ACCURACY: -nan
PSCL5 TIMELY PREFETCHES:          0 LATE PREFETCHES: 0 DROPPED PREFETCHES: 0
PSCL5 COMMIT LATE PREFETCHES: 0 MISSED OPPORTUNITY: 0 LATE IN PQ: 0 UNCOVERED: 0
PSCL5 COMMIT LATE MSHR PREFETCHES: 0
PSCL5 MPKI TOTAL: 0 MSHR LATE: 0 PQ LATE: 0 COMMIT LATE: 0 MISSED OPPORTUNITY: 0 UNCOVERED: 0
PSCL5 PREFETCHES SAME FILL-ORIGIN LEVEL: 0 DIFFERENT FILL-ORIGIN LEVEL: 0

PSCL4 SPEC fills:          0  NON-SPEC fills:          0
PSCL4 Test counter :          0
PSCL4 Leapfrog:          0
PSCL4 MSHR merge:          0
PSCL4 TOTAL     ACCESS:          0  HIT:          0  MISS:          0  HIT %:       -nan  MISS %:       -nan   MPKI: 0
PSCL4 PREFETCH  REQUESTED:          0  ISSUED:          0  USEFUL:          0  USELESS:          0
PSCL4 USEFUL LOAD PREFETCHES:          0 PREFETCH ISSUED TO LOWER LEVEL:          0  ACCURACY: -nan
PSCL4 TIMELY PREFETCHES:          0 LATE PREFETCHES: 0 DROPPED PREFETCHES: 0
PSCL4 COMMIT LATE PREFETCHES: 0 MISSED OPPORTUNITY: 0 LATE IN PQ: 0 UNCOVERED: 0
PSCL4 COMMIT LATE MSHR PREFETCHES: 0
PSCL4 MPKI TOTAL: 0 MSHR LATE: 0 PQ LATE: 0 COMMIT LATE: 0 MISSED OPPORTUNITY: 0 UNCOVERED: 0
PSCL4 PREFETCHES SAME FILL-ORIGIN LEVEL: 0 DIFFERENT FILL-ORIGIN LEVEL: 0

PSCL3 SPEC fills:          0  NON-SPEC fills:          0
PSCL3 Test counter :          0
PSCL3 Leapfrog:          0
PSCL3 MSHR merge:          0
PSCL3 TOTAL     ACCESS:          0  HIT:          0  MISS:          0  HIT %:       -nan  MISS %:       -nan   MPKI: 0
PSCL3 PREFETCH  REQUESTED:          0  ISSUED:          0  USEFUL:          0  USELESS:          0
PSCL3 USEFUL LOAD PREFETCHES:          0 PREFETCH ISSUED TO LOWER LEVEL:          0  ACCURACY: -nan
PSCL3 TIMELY PREFETCHES:          0 LATE PREFETCHES: 0 DROPPED PREFETCHES: 0
PSCL3 COMMIT LATE PREFETCHES: 0 MISSED OPPORTUNITY: 0 LATE IN PQ: 0 UNCOVERED: 0
PSCL3 COMMIT LATE MSHR PREFETCHES: 0
PSCL3 MPKI TOTAL: 0 MSHR LATE: 0 PQ LATE: 0 COMMIT LATE: 0 MISSED OPPORTUNITY: 0 UNCOVERED: 0
PSCL3 PREFETCHES SAME FILL-ORIGIN LEVEL: 0 DIFFERENT FILL-ORIGIN LEVEL: 0

PSCL2 SPEC fills:          0  NON-SPEC fills:          0
PSCL2 Test counter :          0
PSCL2 Leapfrog:          0
PSCL2 MSHR merge:          0
PSCL2 TOTAL     ACCESS:          0  HIT:          0  MISS:          0  HIT %:       -nan  MISS %:       -nan   MPKI: 0
PSCL2 PREFETCH  REQUESTED:          0  ISSUED:          0  USEFUL:          0  USELESS:          0
PSCL2 USEFUL LOAD PREFETCHES:          0 PREFETCH ISSUED TO LOWER LEVEL:          0  ACCURACY: -nan
PSCL2 TIMELY PREFETCHES:          0 LATE PREFETCHES: 0 DROPPED PREFETCHES: 0
PSCL2 COMMIT LATE PREFETCHES: 0 MISSED OPPORTUNITY: 0 LATE IN PQ: 0 UNCOVERED: 0
PSCL2 COMMIT LATE MSHR PREFETCHES: 0
PSCL2 MPKI TOTAL: 0 MSHR LATE: 0 PQ LATE: 0 COMMIT LATE: 0 MISSED OPPORTUNITY: 0 UNCOVERED: 0
PSCL2 PREFETCHES SAME FILL-ORIGIN LEVEL: 0 DIFFERENT FILL-ORIGIN LEVEL: 0

LLC SPEC fills:          0  NON-SPEC fills:       8366
LLC Test counter :          0
LLC Leapfrog:          0
LLC MSHR merge:          0
LLC TOTAL     ACCESS:    6463765  HIT:    1830986  MISS:    4632779  HIT %:    28.3269  MISS %:    71.6731   MPKI: 23.1639
LLC LOAD      TOTAL       ACCESS:     124988  HIT:       2963  MISS:     122025  HIT %:    2.37063  MISS %:    97.6294   MPKI: 0.610125
LLC LOAD      NON_SPEC    ACCESS:       8451  HIT:         35  MISS:       8416  HIT %:   0.414152  MISS %:    99.5858   MPKI: 0.04208
LLC LOAD      SPEC        ACCESS:     116537  HIT:       2928  MISS:     113609  HIT %:    2.51251  MISS %:    97.4875   MPKI: 0.568045
LLC RFO       NON_SPEC    ACCESS:    1348525  HIT:          0  MISS:    1348525  HIT %:          0  MISS %:        100   MPKI: 6.74263
LLC PREFETCH  NON_SPEC    ACCESS:    3037232  HIT:       1124  MISS:    3036108  HIT %:  0.0370074  MISS %:     99.963   MPKI: 15.1805
LLC WRITEBACK NON_SPEC    ACCESS:    1345415  HIT:    1345411  MISS:          4  HIT %:    99.9997  MISS %: 0.000297306   MPKI: 2e-05
LLC CLEAN_EVICTION NON_SPEC    ACCESS:     583309  HIT:     481452  MISS:     101857  HIT %:    82.5381  MISS %:    17.4619   MPKI: 0.509285
LLC COMMIT LOAD NON_SPEC    ACCESS:       4647  HIT:         36  MISS:       4611  HIT %:   0.774693  MISS %:    99.2253   MPKI: 0.023055
LLC LOAD TRANSLATION NON_SPEC    ACCESS:      19649  HIT:          0  MISS:      19649  HIT %:          0  MISS %:        100   MPKI: 0.098245
LLC PREFETCH  REQUESTED:          0  ISSUED:          0  USEFUL:       2831  USELESS:    3044557
LLC USEFUL LOAD PREFETCHES:       2831 PREFETCH ISSUED TO LOWER LEVEL:    3036114  ACCURACY: 0.0932442
LLC TIMELY PREFETCHES:       2831 LATE PREFETCHES: 0 DROPPED PREFETCHES: 0
LLC COMMIT LATE PREFETCHES: 0 MISSED OPPORTUNITY: 0 LATE IN PQ: 0 UNCOVERED: 0
LLC COMMIT LATE MSHR PREFETCHES: 0
LLC MPKI TOTAL: 0.610125 MSHR LATE: 0 PQ LATE: 0 COMMIT LATE: 0 MISSED OPPORTUNITY: 0 UNCOVERED: 0
LLC PREFETCHES SAME FILL-ORIGIN LEVEL: 107 DIFFERENT FILL-ORIGIN LEVEL: 0
LLC AVERAGE MISS LATENCY: 298.74 cycles
LLC AVERAGE MISS LATENCY LOAD: 229.658 cycles
LLC AVERAGE MISS LATENCY PREFETCH: 299.12 cycles
LLC AVERAGE MSHR OCCUPANCY: 7.19697
LLC MSHR FULL: 0
LLC RQ	ACCESS:    1497818	FORWARD:          0	MERGED:          0	TO_CACHE:    1497818
LLC WQ	ACCESS:    1928728	FORWARD:          0	MERGED:          0	TO_CACHE:    1928728
LLC PQ	ACCESS:    3037250	FORWARD:          0	MERGED:         12	TO_CACHE:    3037238

LLC Dense regions hint to LLC: 0

RAW hits: 15
Loads Generated: 73913376
Loads sent to L1D: 73913360
Stores Generated: 10719286
Stores sent to L1D: 10719287
Major fault: 0 Minor fault: 51871
Allocated PAGES: 51871
Total Load insts: 92757189
Total Non-spec loads: 8810893
Percentage of speculative loads: 90.5011

LeapFrogging counter: 276312
Commit hits: 29426679 miss: 36165225
Commit hit %: 44.8633 miss %: 55.1367
Commits not translated: 0
Loads retired: 3615947
Stores retired: 10719287
Cache fills: 3615947
L1D response latency: 24.4048 cycles
Load retirement latency: 86.0118 cycles
OOO test counter: 0
Discarded buffer inserts: 29426679 hits: 82038 hit %: 0.278788
Filter prediction accuracy: 99.701
------------------
Depth Distribution
------------------
depth 0: 417682
depth 1: 1780
depth 2: 2281
depth 3: 3102
depth 4: 2524
depth 5: 18124
depth 6: 245654
depth 7: 1259561
depth 8: 1595232
depth 9: 351248
depth 10: 46055
depth 11: 353183
depth 12: 170933
depth 13: 35172
depth 14: 30819
depth 15: 84
depth 16: 8
depth 17: 0
depth 18: 0
depth 19: 0
depth 20: 0
depth 21: 0
depth 22: 0
depth 23: 0
depth 24: 0
depth 25: 0
depth 26: 0
depth 27: 0
depth 28: 0
depth 29: 0
Total: 4533442
------------------
ST read accesses: 3544965
ST write accesses: 70937
PT read accesses: 153418036
PT write accesses: 4945524
FILTER read accesses: 32532767
FILTER write accesses: 16299322
GHR read accesses: 11972487
GHR write accesses: 2128968
PERC read accesses: 1109670237
PERC write accesses: 34255636
GHR counter read accesses: 7231804
GHR counter write accesses: 11140228
GHR ip read accesses: 23595786
GHR ip write accesses: 14463608
ST tag read accesses: 1424742800
ST tag write accesses: 40980335

DRAM Statistics
 CHANNEL 0
 RQ ROW_BUFFER_HIT:     904849  ROW_BUFFER_MISS:    3626069
 DBUS_CONGESTED:        794
 WQ ROW_BUFFER_HIT:     417157  ROW_BUFFER_MISS:    1505067  FULL:       1146

 AVG_CONGESTED_CYCLE: 5
 All warmup complete: 2
Channel 0 Bank busy for read cycles: 0
Channel 0 Bank busy for write cycles: 0
Channel 0
Rank 0
0banks busy for read cycles: 512596
0banks busy for write cycles: 1429
1banks busy for read cycles: 27771279
1banks busy for write cycles: 567229
2banks busy for read cycles: 41561342
2banks busy for write cycles: 578233
3banks busy for read cycles: 42506743
3banks busy for write cycles: 593944
4banks busy for read cycles: 27835235
4banks busy for write cycles: 636575
5banks busy for read cycles: 15153148
5banks busy for write cycles: 704726
6banks busy for read cycles: 9433242
6banks busy for write cycles: 1013418
7banks busy for read cycles: 6130765
7banks busy for write cycles: 4230732
8banks busy for read cycles: 10857273
8banks busy for write cycles: 42990467

CPU 0 Branch Prediction Accuracy: 99.8819% MPKI: 0.062825 Average ROB Occupancy at Mispredict: 186.706
Branch types
NOT_BRANCH: 189359354 94.6797%
BRANCH_DIRECT_JUMP: 26624 0.013312%
BRANCH_INDIRECT: 0 0%
BRANCH_CONDITIONAL: 10613668 5.30683%
BRANCH_DIRECT_CALL: 0 0%
BRANCH_INDIRECT_CALL: 0 0%
BRANCH_RETURN: 0 0%
BRANCH_OTHER: 0 0%

DRAM PAGES: 1048576
Allocated PAGES: 51871
