
*** ChampSim Multicore Out-of-Order Simulator ***

Warmup Instructions: 50000000
Simulation Instructions: 200000000
Number of CPUs: 1
LLC sets: 2048
LLC ways: 16
L0D sets: 16
L0D ways: 2
ROB size: 352
LQ size: 128
SQ size: 72
Secure Berti: OFF
Berti: OFF
Berti Fill: OFF
On commit prefetching: ON
Hit-based filter: ON
Time-guarding: ON
Free-slotting: ON
Leap-frogging: ON
Train prefetcher on L0D bypass: OFF
No translation penalty for prefetchers: OFF
Prefetch to L0D only: OFF
Prefetch to L1D only: OFF
Clean evictions: ON
Commit loads: ON
Commit write: ON
Fill commit loads to L2C, LLC: ON
DRAM IO FREQUENCY: 6400
ROB SIZE: 352
Off-chip DRAM Size: 4096 MB Channels: 1 Width: 64-bit Data Rate: 6400 MT/s
CPU 0 runs /home/sumon/secure_berti/GhostMinion/../../traces/spec/602.gcc_s-1850B.champsimtrace.xz
.xz
BTB has LRU replacement policy
ITLB has LRU replacement policy
DTLB has LRU replacement policy
STLB has LRU replacement policy
L1I has LRU replacement policy
L0D has LRU replacement policy
History Sets: 8
History Ways: 16
BERTI Size: 16
BERTI Stride Size: 16
L1D has LRU replacement policy
L2C has LRU replacement policy
LLC has LRU replacement policy
Heartbeat CPU 0 instructions: 10000002 cycles: 5267341 heartbeat IPC: 1.89849 cumulative IPC: 1.89849 (Simulation time: 0 hr 0 min 44 sec) 
Heartbeat CPU 0 instructions: 20000000 cycles: 10537795 heartbeat IPC: 1.89737 cumulative IPC: 1.89793 (Simulation time: 0 hr 1 min 28 sec) 
Heartbeat CPU 0 instructions: 30000000 cycles: 15803902 heartbeat IPC: 1.89894 cumulative IPC: 1.89827 (Simulation time: 0 hr 2 min 13 sec) 
Heartbeat CPU 0 instructions: 40000000 cycles: 21066931 heartbeat IPC: 1.90005 cumulative IPC: 1.89871 (Simulation time: 0 hr 2 min 57 sec) 
Heartbeat CPU 0 instructions: 50000000 cycles: 26336208 heartbeat IPC: 1.89779 cumulative IPC: 1.89853 (Simulation time: 0 hr 3 min 39 sec) 

Warmup complete CPU 0 instructions: 50000004 cycles: 26336209 (Simulation time: 0 hr 3 min 39 sec) 

Heartbeat CPU 0 instructions: 60000003 cycles: 46587227 heartbeat IPC: 0.493802 cumulative IPC: 0.493802 (Simulation time: 0 hr 4 min 40 sec) 
Heartbeat CPU 0 instructions: 70000002 cycles: 66850791 heartbeat IPC: 0.493497 cumulative IPC: 0.493649 (Simulation time: 0 hr 5 min 40 sec) 
Heartbeat CPU 0 instructions: 80000003 cycles: 87104053 heartbeat IPC: 0.493748 cumulative IPC: 0.493682 (Simulation time: 0 hr 6 min 40 sec) 
Heartbeat CPU 0 instructions: 90000001 cycles: 107379467 heartbeat IPC: 0.493208 cumulative IPC: 0.493564 (Simulation time: 0 hr 7 min 41 sec) 
Heartbeat CPU 0 instructions: 100000000 cycles: 127625724 heartbeat IPC: 0.493918 cumulative IPC: 0.493634 (Simulation time: 0 hr 8 min 41 sec) 
Heartbeat CPU 0 instructions: 110000000 cycles: 147946407 heartbeat IPC: 0.492109 cumulative IPC: 0.49338 (Simulation time: 0 hr 9 min 41 sec) 
Heartbeat CPU 0 instructions: 120000003 cycles: 168283929 heartbeat IPC: 0.491702 cumulative IPC: 0.493139 (Simulation time: 0 hr 10 min 41 sec) 
Heartbeat CPU 0 instructions: 130000003 cycles: 188585980 heartbeat IPC: 0.492561 cumulative IPC: 0.493067 (Simulation time: 0 hr 11 min 42 sec) 
Heartbeat CPU 0 instructions: 140000000 cycles: 208832317 heartbeat IPC: 0.493916 cumulative IPC: 0.493161 (Simulation time: 0 hr 12 min 41 sec) 
Heartbeat CPU 0 instructions: 150000000 cycles: 229068162 heartbeat IPC: 0.494173 cumulative IPC: 0.493262 (Simulation time: 0 hr 13 min 41 sec) 
Heartbeat CPU 0 instructions: 160000000 cycles: 249384287 heartbeat IPC: 0.49222 cumulative IPC: 0.493167 (Simulation time: 0 hr 14 min 40 sec) 
Heartbeat CPU 0 instructions: 170000003 cycles: 269703565 heartbeat IPC: 0.492144 cumulative IPC: 0.493082 (Simulation time: 0 hr 15 min 39 sec) 
Heartbeat CPU 0 instructions: 180000000 cycles: 289980929 heartbeat IPC: 0.493161 cumulative IPC: 0.493088 (Simulation time: 0 hr 16 min 38 sec) 
Heartbeat CPU 0 instructions: 190000003 cycles: 310326457 heartbeat IPC: 0.491509 cumulative IPC: 0.492975 (Simulation time: 0 hr 17 min 35 sec) 
Heartbeat CPU 0 instructions: 200000000 cycles: 330558901 heartbeat IPC: 0.494256 cumulative IPC: 0.49306 (Simulation time: 0 hr 18 min 31 sec) 
Heartbeat CPU 0 instructions: 210000002 cycles: 350863671 heartbeat IPC: 0.492495 cumulative IPC: 0.493025 (Simulation time: 0 hr 19 min 26 sec) 
Heartbeat CPU 0 instructions: 220000000 cycles: 371261363 heartbeat IPC: 0.490251 cumulative IPC: 0.492861 (Simulation time: 0 hr 20 min 21 sec) 
Heartbeat CPU 0 instructions: 230000003 cycles: 391642937 heartbeat IPC: 0.490639 cumulative IPC: 0.492737 (Simulation time: 0 hr 21 min 16 sec) 
Heartbeat CPU 0 instructions: 240000000 cycles: 411948260 heartbeat IPC: 0.492482 cumulative IPC: 0.492723 (Simulation time: 0 hr 22 min 12 sec) 
Heartbeat CPU 0 instructions: 250000000 cycles: 432279483 heartbeat IPC: 0.491854 cumulative IPC: 0.49268 (Simulation time: 0 hr 23 min 13 sec) 
Finished CPU 0 instructions: 200000000 cycles: 405943275 cumulative IPC: 0.49268 (Simulation time: 0 hr 23 min 13 sec) 
 Instruction ID: 250000378

ChampSim completed all CPUs

Region of Interest Statistics

CPU 0 cumulative IPC: 0.49268 instructions: 200000000 cycles: 405943275
ITLB SPEC fills:          0  NON-SPEC fills:          0
ITLB Test counter :          0
ITLB Leapfrog:          0
ITLB MSHR merge:          0
ITLB TOTAL     ACCESS:   43353207  HIT:   43353207  MISS:          0  HIT %:        100  MISS %:          0   MPKI: 0
ITLB LOAD TRANSLATION NON_SPEC    ACCESS:   43353207  HIT:   43353207  MISS:          0  HIT %:        100  MISS %:          0   MPKI: 0
ITLB PREFETCH  REQUESTED:          0  ISSUED:          0  USEFUL:          0  USELESS:          0
ITLB USEFUL LOAD PREFETCHES:          0 PREFETCH ISSUED TO LOWER LEVEL:          0  ACCURACY: -nan
ITLB TIMELY PREFETCHES:          0 LATE PREFETCHES: 0 DROPPED PREFETCHES: 0
ITLB COMMIT LATE PREFETCHES: 0 MISSED OPPORTUNITY: 0 LATE IN PQ: 0 UNCOVERED: 0
ITLB COMMIT LATE MSHR PREFETCHES: 0
ITLB MPKI TOTAL: 0 MSHR LATE: 0 PQ LATE: 0 COMMIT LATE: 0 MISSED OPPORTUNITY: 0 UNCOVERED: 0
ITLB PREFETCHES SAME FILL-ORIGIN LEVEL: 0 DIFFERENT FILL-ORIGIN LEVEL: 0
ITLB AVERAGE MISS LATENCY: -nan cycles
ITLB AVERAGE MISS LATENCY LOAD: -nan cycles
ITLB AVERAGE MISS LATENCY PREFETCH: -nan cycles
ITLB AVERAGE MSHR OCCUPANCY: 0
ITLB MSHR FULL: 0
ITLB RQ	ACCESS:   47087859	FORWARD:          0	MERGED:    3734652	TO_CACHE:   43353207

DTLB SPEC fills:          0  NON-SPEC fills:          0
DTLB Test counter :          0
DTLB Leapfrog:          0
DTLB MSHR merge:          0
DTLB TOTAL     ACCESS:   56611287  HIT:   56545142  MISS:      66145  HIT %:    99.8832  MISS %:   0.116841   MPKI: 0.330725
DTLB LOAD TRANSLATION NON_SPEC    ACCESS:   56611287  HIT:   56545142  MISS:      66145  HIT %:    99.8832  MISS %:   0.116841   MPKI: 0.330725
DTLB PREFETCH  REQUESTED:          0  ISSUED:          0  USEFUL:          0  USELESS:          0
DTLB USEFUL LOAD PREFETCHES:          0 PREFETCH ISSUED TO LOWER LEVEL:          0  ACCURACY: -nan
DTLB TIMELY PREFETCHES:          0 LATE PREFETCHES: 0 DROPPED PREFETCHES: 0
DTLB COMMIT LATE PREFETCHES: 0 MISSED OPPORTUNITY: 0 LATE IN PQ: 0 UNCOVERED: 0
DTLB COMMIT LATE MSHR PREFETCHES: 0
DTLB MPKI TOTAL: 0 MSHR LATE: 0 PQ LATE: 0 COMMIT LATE: 0 MISSED OPPORTUNITY: 0 UNCOVERED: 0
DTLB PREFETCHES SAME FILL-ORIGIN LEVEL: 0 DIFFERENT FILL-ORIGIN LEVEL: 0
DTLB AVERAGE MISS LATENCY: 170.543 cycles
DTLB AVERAGE MISS LATENCY LOAD: -nan cycles
DTLB AVERAGE MISS LATENCY PREFETCH: -nan cycles
DTLB AVERAGE MSHR OCCUPANCY: 0.00245506
DTLB MSHR FULL: 0
DTLB RQ	ACCESS:   59927682	FORWARD:          0	MERGED:    3313545	TO_CACHE:   56614137

STLB SPEC fills:          0  NON-SPEC fills:          0
STLB Test counter :          0
STLB Leapfrog:          0
STLB MSHR merge:          0
STLB TOTAL     ACCESS:    9145884  HIT:    9084974  MISS:      60910  HIT %:     99.334  MISS %:   0.665983   MPKI: 0.30455
STLB LOAD TRANSLATION NON_SPEC    ACCESS:      66145  HIT:       5322  MISS:      60823  HIT %:    8.04596  MISS %:     91.954   MPKI: 0.304115
STLB TRANSLATION FROM L1D PREFETCHER NON_SPEC    ACCESS:    9079739  HIT:    9079652  MISS:         87  HIT %:     99.999  MISS %: 0.000958177   MPKI: 0.000435
STLB PREFETCH  REQUESTED:          0  ISSUED:          0  USEFUL:         83  USELESS:          3
STLB USEFUL LOAD PREFETCHES:         83 PREFETCH ISSUED TO LOWER LEVEL:          0  ACCURACY: inf
STLB TIMELY PREFETCHES:         83 LATE PREFETCHES: 18183 DROPPED PREFETCHES: 1104048
STLB COMMIT LATE PREFETCHES: 0 MISSED OPPORTUNITY: 0 LATE IN PQ: 0 UNCOVERED: 0
STLB COMMIT LATE MSHR PREFETCHES: 0
STLB MPKI TOTAL: 0 MSHR LATE: 0.090915 PQ LATE: 0 COMMIT LATE: 0 MISSED OPPORTUNITY: 0 UNCOVERED: 0
STLB PREFETCHES SAME FILL-ORIGIN LEVEL: 0 DIFFERENT FILL-ORIGIN LEVEL: 0
STLB AVERAGE MISS LATENCY: 157.617 cycles
STLB AVERAGE MISS LATENCY LOAD: -nan cycles
STLB AVERAGE MISS LATENCY PREFETCH: -nan cycles
STLB AVERAGE MSHR OCCUPANCY: 0.0937334
STLB MSHR FULL: 0
STLB RQ	ACCESS:   50198085	FORWARD:          0	MERGED:   39616825	TO_CACHE:   10581260

STLB Hit, L1D data hit: 0
STLB Hit, L2C data hit: 0
STLB Hit, LLC data hit: 0
STLB Hit, LLC data miss: 0
STLB STLB hints to L2: 0
L0D SPEC fills:   17483402  NON-SPEC fills:          0
L0D TimeGuard Request with older TS:     298160 Restricted eviction:      20228 read:    1285922
L0D Test counter :          0
L0D Leapfrog:          0
L0D MSHR merge:    1541661
L0D TOTAL     ACCESS:   38975010  HIT:    6716876  MISS:   32258134  HIT %:    17.2338  MISS %:    82.7662   MPKI: 161.291
L0D LOAD      TOTAL       ACCESS:   38975010  HIT:    6716876  MISS:   32258134  HIT %:    17.2338  MISS %:    82.7662   MPKI: 161.291
L0D LOAD      NON_SPEC    ACCESS:   14876180  HIT:     121676  MISS:   14754504  HIT %:   0.817925  MISS %:    99.1821   MPKI: 73.7725
L0D LOAD      SPEC        ACCESS:   24098830  HIT:    6595200  MISS:   17503630  HIT %:    27.3673  MISS %:    72.6327   MPKI: 87.5182
L0D PREFETCH  REQUESTED:          0  ISSUED:          0  USEFUL:          0  USELESS:          0
L0D USEFUL LOAD PREFETCHES:          0 PREFETCH ISSUED TO LOWER LEVEL:          0  ACCURACY: -nan
L0D TIMELY PREFETCHES:          0 LATE PREFETCHES: 0 DROPPED PREFETCHES: 0
L0D COMMIT LATE PREFETCHES: 0 MISSED OPPORTUNITY: 0 LATE IN PQ: 0 UNCOVERED: 0
L0D COMMIT LATE MSHR PREFETCHES: 0
L0D MPKI TOTAL: 168.999 MSHR LATE: 0 PQ LATE: 0 COMMIT LATE: 0 MISSED OPPORTUNITY: 0 UNCOVERED: 0
L0D PREFETCHES SAME FILL-ORIGIN LEVEL: 0 DIFFERENT FILL-ORIGIN LEVEL: 0
L0D AVERAGE MISS LATENCY: 5.81863 cycles
L0D AVERAGE MISS LATENCY LOAD: 5.81863 cycles
L0D AVERAGE MISS LATENCY PREFETCH: -nan cycles
L0D AVERAGE MSHR OCCUPANCY: 0.634579
L0D MSHR FULL: 0
L0D RQ	ACCESS:   55593621	FORWARD:          0	MERGED:   15076952	TO_CACHE:   40516669
L0D WQ	ACCESS:   19411013	FORWARD:          0	MERGED:          0	TO_CACHE:   19411013

L1D SPEC fills:          0  NON-SPEC fills:      83324
L1D Test counter :     234792
L1D Leapfrog:          0
L1D MSHR merge:      55739
L1D TOTAL     ACCESS:   86919373  HIT:   81068800  MISS:    5850573  HIT %:     93.269  MISS %:    6.73103   MPKI: 29.2529
L1D LOAD      TOTAL       ACCESS:   32257720  HIT:   31008668  MISS:    1249052  HIT %:    96.1279  MISS %:     3.8721   MPKI: 6.24526
L1D LOAD      NON_SPEC    ACCESS:   14754497  HIT:   14671173  MISS:      83324  HIT %:    99.4353  MISS %:   0.564736   MPKI: 0.41662
L1D LOAD      SPEC        ACCESS:   17503223  HIT:   16337495  MISS:    1165728  HIT %:    93.3399  MISS %:    6.66008   MPKI: 5.82864
L1D RFO       NON_SPEC    ACCESS:   19410176  HIT:   19408647  MISS:       1529  HIT %:    99.9921  MISS %: 0.00787731   MPKI: 0.007645
L1D PREFETCH  NON_SPEC    ACCESS:   33486371  HIT:   29948287  MISS:    3538084  HIT %:    89.4343  MISS %:    10.5657   MPKI: 17.6904
L1D COMMIT LOAD NON_SPEC    ACCESS:     522727  HIT:     520352  MISS:       2375  HIT %:    99.5457  MISS %:   0.454348   MPKI: 0.011875
L1D COMMIT WRITE NON_SPEC    ACCESS:    1242379  HIT:     182846  MISS:    1059533  HIT %:    14.7174  MISS %:    85.2826   MPKI: 5.29767
L1D PREFETCH  REQUESTED:   83190685  ISSUED:   75179858  USEFUL:    3424948  USELESS:     113125
L1D USEFUL LOAD PREFETCHES:    3424948 PREFETCH ISSUED TO LOWER LEVEL:   15809910  ACCURACY: 21.6633
L1D TIMELY PREFETCHES:    3424948 LATE PREFETCHES: 55333 DROPPED PREFETCHES: 3425431
L1D COMMIT LATE PREFETCHES: 0 MISSED OPPORTUNITY: 0 LATE IN PQ: 0 UNCOVERED: 0
L1D COMMIT LATE MSHR PREFETCHES: 0
L1D MPKI TOTAL: 6.24733 MSHR LATE: 0.276665 PQ LATE: 0 COMMIT LATE: 0 MISSED OPPORTUNITY: 0 UNCOVERED: 0
L1D PREFETCHES SAME FILL-ORIGIN LEVEL: 3593417 DIFFERENT FILL-ORIGIN LEVEL: 12216493
L1D AVERAGE MISS LATENCY: 35.4879 cycles
L1D AVERAGE MISS LATENCY LOAD: 20.6682 cycles
L1D AVERAGE MISS LATENCY PREFETCH: 51.3444 cycles
L1D AVERAGE MSHR OCCUPANCY: 0.359068
L1D MSHR FULL: 3.35558e-07
L1D RQ	ACCESS:   33071359	FORWARD:          0	MERGED:     289414	TO_CACHE:   32781256
L1D WQ	ACCESS:   20653585	FORWARD:        689	MERGED:       1026	TO_CACHE:   20652559
L1D PQ	ACCESS:   75179858	FORWARD:          0	MERGED:   25047918	TO_CACHE:   50131940

L1D UNIQUE REGIONS ACCESSED: 0
L1D REGIONS CONFLICTS: 0
L1D Cross Page Prefetch Requests: 13493931
L1D Same Page Prefetch Requests: 83565122
L1D ROI Sum of L1D PQ occupancy: 1161933799
L1D PREFETCHES PUSHED FROM L2C: 0
L1I SPEC fills:          0  NON-SPEC fills:          0
L1I Test counter :          0
L1I Leapfrog:          0
L1I MSHR merge:          0
L1I TOTAL     ACCESS:   47087858  HIT:   47087858  MISS:          0  HIT %:        100  MISS %:          0   MPKI: 0
L1I LOAD      TOTAL       ACCESS:   47087858  HIT:   47087858  MISS:          0  HIT %:        100  MISS %:          0   MPKI: 0
L1I LOAD      NON_SPEC    ACCESS:   47087858  HIT:   47087858  MISS:          0  HIT %:        100  MISS %:          0   MPKI: 0
L1I PREFETCH  REQUESTED:          0  ISSUED:          0  USEFUL:          0  USELESS:          0
L1I USEFUL LOAD PREFETCHES:          0 PREFETCH ISSUED TO LOWER LEVEL:          0  ACCURACY: -nan
L1I TIMELY PREFETCHES:          0 LATE PREFETCHES: 0 DROPPED PREFETCHES: 0
L1I COMMIT LATE PREFETCHES: 0 MISSED OPPORTUNITY: 0 LATE IN PQ: 0 UNCOVERED: 0
L1I COMMIT LATE MSHR PREFETCHES: 0
L1I MPKI TOTAL: 0 MSHR LATE: 0 PQ LATE: 0 COMMIT LATE: 0 MISSED OPPORTUNITY: 0 UNCOVERED: 0
L1I PREFETCHES SAME FILL-ORIGIN LEVEL: 0 DIFFERENT FILL-ORIGIN LEVEL: 0
L1I AVERAGE MISS LATENCY: -nan cycles
L1I AVERAGE MISS LATENCY LOAD: -nan cycles
L1I AVERAGE MISS LATENCY PREFETCH: -nan cycles
L1I AVERAGE MSHR OCCUPANCY: 0
L1I MSHR FULL: 0
L1I RQ	ACCESS:   74391964	FORWARD:          0	MERGED:   27304105	TO_CACHE:   47087859

BTB SPEC fills:          0  NON-SPEC fills:          0
BTB Test counter :          0
BTB Leapfrog:          0
BTB MSHR merge:          0
BTB TOTAL     ACCESS:   32765954  HIT:   32765925  MISS:         29  HIT %:    99.9999  MISS %: 8.85065e-05   MPKI: 0.000145
BTB BRANCH_DIRECT_JUMP	ACCESS:    4318196  HIT:    4318187  MISS:          9
BTB BRANCH_INDIRECT	ACCESS:          0  HIT:          0  MISS:          0
BTB BRANCH_CONDITIONAL	ACCESS:   24127035  HIT:   24127021  MISS:         14
BTB BRANCH_DIRECT_CALL	ACCESS:    2160361  HIT:    2160358  MISS:          3
BTB BRANCH_INDIRECT_CALL	ACCESS:          0  HIT:          0  MISS:          0
BTB BRANCH_RETURN	ACCESS:    2160362  HIT:    2160359  MISS:          3
BTB BRANCH_OTHER ACCESS:          0  HIT:          0  MISS:          0

L2C SPEC fills:          0  NON-SPEC fills:      20636
L2C Test counter :     125906
L2C Leapfrog:          0
L2C MSHR merge:       2421
L2C TOTAL     ACCESS:   22416574  HIT:   18661736  MISS:    3754838  HIT %:    83.2497  MISS %:    16.7503   MPKI: 18.7742
L2C LOAD      TOTAL       ACCESS:    1193710  HIT:    1119486  MISS:      74224  HIT %:    93.7821  MISS %:    6.21793   MPKI: 0.37112
L2C LOAD      NON_SPEC    ACCESS:      51434  HIT:      30798  MISS:      20636  HIT %:    59.8787  MISS %:    40.1213   MPKI: 0.10318
L2C LOAD      SPEC        ACCESS:    1142276  HIT:    1088688  MISS:      53588  HIT %:    95.3087  MISS %:    4.69134   MPKI: 0.26794
L2C RFO       NON_SPEC    ACCESS:       1526  HIT:       1104  MISS:        422  HIT %:     72.346  MISS %:     27.654   MPKI: 0.00211
L2C PREFETCH  NON_SPEC    ACCESS:   15069173  HIT:   11454197  MISS:    3614976  HIT %:    76.0108  MISS %:    23.9892   MPKI: 18.0749
L2C WRITEBACK NON_SPEC    ACCESS:       2726  HIT:       2726  MISS:          0  HIT %:        100  MISS %:          0   MPKI: 0
L2C CLEAN_EVICTION NON_SPEC    ACCESS:     234792  HIT:     182292  MISS:      52500  HIT %:    77.6398  MISS %:    22.3602   MPKI: 0.2625
L2C COMMIT LOAD NON_SPEC    ACCESS:       2367  HIT:       2315  MISS:         52  HIT %:    97.8031  MISS %:    2.19687   MPKI: 0.00026
L2C LOAD TRANSLATION NON_SPEC    ACCESS:     303709  HIT:     299470  MISS:       4239  HIT %:    98.6043  MISS %:    1.39574   MPKI: 0.021195
L2C TRANSLATION FROM L1D PREFETCHER NON_SPEC    ACCESS:    5608571  HIT:    5600146  MISS:       8425  HIT %:    99.8498  MISS %:   0.150217   MPKI: 0.042125
L2C PREFETCH  REQUESTED:          0  ISSUED:          0  USEFUL:      89156  USELESS:    3534630
L2C USEFUL LOAD PREFETCHES:      89156 PREFETCH ISSUED TO LOWER LEVEL:    3617409  ACCURACY: 2.46464
L2C TIMELY PREFETCHES:      89156 LATE PREFETCHES: 2432 DROPPED PREFETCHES: 0
L2C COMMIT LATE PREFETCHES: 0 MISSED OPPORTUNITY: 0 LATE IN PQ: 0 UNCOVERED: 0
L2C COMMIT LATE MSHR PREFETCHES: 0
L2C MPKI TOTAL: 0.37112 MSHR LATE: 0.01216 PQ LATE: 0 COMMIT LATE: 0 MISSED OPPORTUNITY: 0 UNCOVERED: 0
L2C PREFETCHES SAME FILL-ORIGIN LEVEL: 2550400 DIFFERENT FILL-ORIGIN LEVEL: 0
L2C AVERAGE MISS LATENCY: 112.636 cycles
L2C AVERAGE MISS LATENCY LOAD: 99.4814 cycles
L2C AVERAGE MISS LATENCY PREFETCH: 114.283 cycles
L2C AVERAGE MSHR OCCUPANCY: 0.361602
L2C MSHR FULL: 0
L2C RQ	ACCESS:    7109903	FORWARD:          0	MERGED:          0	TO_CACHE:    7109883
L2C WQ	ACCESS:     237518	FORWARD:         30	MERGED:          0	TO_CACHE:     237518
L2C PQ	ACCESS:   15809910	FORWARD:          0	MERGED:       1093	TO_CACHE:   15808807

L2C Instructions Evicting Data 0
L2C Translations Evicting Data 12648
L2C Data Evicting Data 3623622
L2C Instructions Evicting Instructions 0
L2C Translations Evicting Instructions 0
L2C Data Evicting Instructions 0
L2C Instructions Evicting Translations 0
L2C Translations Evicting Translations 16
L2C Data Evicting Translations 12464
L2C Dense regions hint from L2: 0
PSCL5 SPEC fills:          0  NON-SPEC fills:          0
PSCL5 Test counter :          0
PSCL5 Leapfrog:          0
PSCL5 MSHR merge:          0
PSCL5 TOTAL     ACCESS:          0  HIT:          0  MISS:          0  HIT %:       -nan  MISS %:       -nan   MPKI: 0
PSCL5 PREFETCH  REQUESTED:          0  ISSUED:          0  USEFUL:          0  USELESS:          0
PSCL5 USEFUL LOAD PREFETCHES:          0 PREFETCH ISSUED TO LOWER LEVEL:          0  ACCURACY: -nan
PSCL5 TIMELY PREFETCHES:          0 LATE PREFETCHES: 0 DROPPED PREFETCHES: 0
PSCL5 COMMIT LATE PREFETCHES: 0 MISSED OPPORTUNITY: 0 LATE IN PQ: 0 UNCOVERED: 0
PSCL5 COMMIT LATE MSHR PREFETCHES: 0
PSCL5 MPKI TOTAL: 0 MSHR LATE: 0 PQ LATE: 0 COMMIT LATE: 0 MISSED OPPORTUNITY: 0 UNCOVERED: 0
PSCL5 PREFETCHES SAME FILL-ORIGIN LEVEL: 0 DIFFERENT FILL-ORIGIN LEVEL: 0

PSCL4 SPEC fills:          0  NON-SPEC fills:          0
PSCL4 Test counter :          0
PSCL4 Leapfrog:          0
PSCL4 MSHR merge:          0
PSCL4 TOTAL     ACCESS:          0  HIT:          0  MISS:          0  HIT %:       -nan  MISS %:       -nan   MPKI: 0
PSCL4 PREFETCH  REQUESTED:          0  ISSUED:          0  USEFUL:          0  USELESS:          0
PSCL4 USEFUL LOAD PREFETCHES:          0 PREFETCH ISSUED TO LOWER LEVEL:          0  ACCURACY: -nan
PSCL4 TIMELY PREFETCHES:          0 LATE PREFETCHES: 0 DROPPED PREFETCHES: 0
PSCL4 COMMIT LATE PREFETCHES: 0 MISSED OPPORTUNITY: 0 LATE IN PQ: 0 UNCOVERED: 0
PSCL4 COMMIT LATE MSHR PREFETCHES: 0
PSCL4 MPKI TOTAL: 0 MSHR LATE: 0 PQ LATE: 0 COMMIT LATE: 0 MISSED OPPORTUNITY: 0 UNCOVERED: 0
PSCL4 PREFETCHES SAME FILL-ORIGIN LEVEL: 0 DIFFERENT FILL-ORIGIN LEVEL: 0

PSCL3 SPEC fills:          0  NON-SPEC fills:          0
PSCL3 Test counter :          0
PSCL3 Leapfrog:          0
PSCL3 MSHR merge:          0
PSCL3 TOTAL     ACCESS:          0  HIT:          0  MISS:          0  HIT %:       -nan  MISS %:       -nan   MPKI: 0
PSCL3 PREFETCH  REQUESTED:          0  ISSUED:          0  USEFUL:          0  USELESS:          0
PSCL3 USEFUL LOAD PREFETCHES:          0 PREFETCH ISSUED TO LOWER LEVEL:          0  ACCURACY: -nan
PSCL3 TIMELY PREFETCHES:          0 LATE PREFETCHES: 0 DROPPED PREFETCHES: 0
PSCL3 COMMIT LATE PREFETCHES: 0 MISSED OPPORTUNITY: 0 LATE IN PQ: 0 UNCOVERED: 0
PSCL3 COMMIT LATE MSHR PREFETCHES: 0
PSCL3 MPKI TOTAL: 0 MSHR LATE: 0 PQ LATE: 0 COMMIT LATE: 0 MISSED OPPORTUNITY: 0 UNCOVERED: 0
PSCL3 PREFETCHES SAME FILL-ORIGIN LEVEL: 0 DIFFERENT FILL-ORIGIN LEVEL: 0

PSCL2 SPEC fills:          0  NON-SPEC fills:          0
PSCL2 Test counter :          0
PSCL2 Leapfrog:          0
PSCL2 MSHR merge:          0
PSCL2 TOTAL     ACCESS:          0  HIT:          0  MISS:          0  HIT %:       -nan  MISS %:       -nan   MPKI: 0
PSCL2 PREFETCH  REQUESTED:          0  ISSUED:          0  USEFUL:          0  USELESS:          0
PSCL2 USEFUL LOAD PREFETCHES:          0 PREFETCH ISSUED TO LOWER LEVEL:          0  ACCURACY: -nan
PSCL2 TIMELY PREFETCHES:          0 LATE PREFETCHES: 0 DROPPED PREFETCHES: 0
PSCL2 COMMIT LATE PREFETCHES: 0 MISSED OPPORTUNITY: 0 LATE IN PQ: 0 UNCOVERED: 0
PSCL2 COMMIT LATE MSHR PREFETCHES: 0
PSCL2 MPKI TOTAL: 0 MSHR LATE: 0 PQ LATE: 0 COMMIT LATE: 0 MISSED OPPORTUNITY: 0 UNCOVERED: 0
PSCL2 PREFETCHES SAME FILL-ORIGIN LEVEL: 0 DIFFERENT FILL-ORIGIN LEVEL: 0

LLC SPEC fills:          0  NON-SPEC fills:      19676
LLC Test counter :     111632
LLC Leapfrog:          0
LLC MSHR merge:          0
LLC TOTAL     ACCESS:    3829986  HIT:     130363  MISS:    3699623  HIT %:    3.40375  MISS %:    96.5963   MPKI: 18.4981
LLC LOAD      TOTAL       ACCESS:      71801  HIT:      15237  MISS:      56564  HIT %:    21.2212  MISS %:    78.7788   MPKI: 0.28282
LLC LOAD      NON_SPEC    ACCESS:      19966  HIT:        290  MISS:      19676  HIT %:    1.45247  MISS %:    98.5475   MPKI: 0.09838
LLC LOAD      SPEC        ACCESS:      51835  HIT:      14947  MISS:      36888  HIT %:    28.8357  MISS %:    71.1643   MPKI: 0.18444
LLC RFO       NON_SPEC    ACCESS:        422  HIT:          3  MISS:        419  HIT %:     0.7109  MISS %:    99.2891   MPKI: 0.002095
LLC PREFETCH  NON_SPEC    ACCESS:    3617407  HIT:      23604  MISS:    3593803  HIT %:   0.652512  MISS %:    99.3475   MPKI: 17.969
LLC WRITEBACK NON_SPEC    ACCESS:       1745  HIT:       1745  MISS:          0  HIT %:        100  MISS %:          0   MPKI: 0
LLC CLEAN_EVICTION NON_SPEC    ACCESS:     125906  HIT:      88551  MISS:      37355  HIT %:     70.331  MISS %:     29.669   MPKI: 0.186775
LLC COMMIT LOAD NON_SPEC    ACCESS:         41  HIT:          7  MISS:         34  HIT %:    17.0732  MISS %:    82.9268   MPKI: 0.00017
LLC LOAD TRANSLATION NON_SPEC    ACCESS:       4239  HIT:        624  MISS:       3615  HIT %:    14.7205  MISS %:    85.2795   MPKI: 0.018075
LLC TRANSLATION FROM L1D PREFETCHER NON_SPEC    ACCESS:       8425  HIT:        592  MISS:       7833  HIT %:    7.02671  MISS %:    92.9733   MPKI: 0.039165
LLC PREFETCH  REQUESTED:          0  ISSUED:          0  USEFUL:        640  USELESS:    3601040
LLC USEFUL LOAD PREFETCHES:        640 PREFETCH ISSUED TO LOWER LEVEL:    3593804  ACCURACY: 0.0178084
LLC TIMELY PREFETCHES:        640 LATE PREFETCHES: 0 DROPPED PREFETCHES: 0
LLC COMMIT LATE PREFETCHES: 0 MISSED OPPORTUNITY: 0 LATE IN PQ: 0 UNCOVERED: 0
LLC COMMIT LATE MSHR PREFETCHES: 0
LLC MPKI TOTAL: 0.28282 MSHR LATE: 0 PQ LATE: 0 COMMIT LATE: 0 MISSED OPPORTUNITY: 0 UNCOVERED: 0
LLC PREFETCHES SAME FILL-ORIGIN LEVEL: 0 DIFFERENT FILL-ORIGIN LEVEL: 0
LLC AVERAGE MISS LATENCY: 84.4363 cycles
LLC AVERAGE MISS LATENCY LOAD: 97.718 cycles
LLC AVERAGE MISS LATENCY PREFETCH: 84.8224 cycles
LLC AVERAGE MSHR OCCUPANCY: 0.596446
LLC MSHR FULL: 0
LLC RQ	ACCESS:      84930	FORWARD:          0	MERGED:          0	TO_CACHE:      84928
LLC WQ	ACCESS:     127651	FORWARD:          3	MERGED:          0	TO_CACHE:     127651
LLC PQ	ACCESS:    3617409	FORWARD:          0	MERGED:          0	TO_CACHE:    3617408

LLC Dense regions hint to LLC: 0

RAW hits: 2486
Loads Generated: 55596107
Loads sent to L1D: 55593621
Stores Generated: 19411013
Stores sent to L1D: 19411013
Major fault: 0 Minor fault: 76297
Allocated PAGES: 76297
Total Load insts: 69478362
Total Non-spec loads: 17562701
Percentage of speculative loads: 74.7221

LeapFrogging counter: 0
Commit hits: 17313633 miss: 23393290
Commit hit %: 42.5324 miss %: 57.4676
Commits not translated: 0
Loads retired: 1249052
Stores retired: 19411013
Cache fills: 1249052
L1D response latency: 20.6682 cycles
Load retirement latency: 77.0072 cycles
OOO test counter: 0
Discarded buffer inserts: 17313633 hits: 48355 hit %: 0.279289
LATENCY_FILL: 4.76576 1061065

DRAM Statistics
 CHANNEL 0
 RQ ROW_BUFFER_HIT:    3244954  ROW_BUFFER_MISS:     417314
 DBUS_CONGESTED:      11784
 WQ ROW_BUFFER_HIT:      41551  ROW_BUFFER_MISS:      71814  FULL:          0

 AVG_CONGESTED_CYCLE: 2
 All warmup complete: 2
Channel 0 Bank busy for read cycles: 0
Channel 0 Bank busy for write cycles: 0
Channel 0
Rank 0
0banks busy for read cycles: 262666106
0banks busy for write cycles: 71657
1banks busy for read cycles: 71369291
1banks busy for write cycles: 15187278
2banks busy for read cycles: 27463006
2banks busy for write cycles: 4272583
3banks busy for read cycles: 11007646
3banks busy for write cycles: 1103776
4banks busy for read cycles: 5337368
4banks busy for write cycles: 351882
5banks busy for read cycles: 2378357
5banks busy for write cycles: 148583
6banks busy for read cycles: 1219021
6banks busy for write cycles: 66254
7banks busy for read cycles: 1090249
7banks busy for write cycles: 28348
8banks busy for read cycles: 2174233
8banks busy for write cycles: 7638

CPU 0 Branch Prediction Accuracy: 99.9621% MPKI: 0.097185 Average ROB Occupancy at Mispredict: 311.513
Branch types
NOT_BRANCH: 148719231 74.3596%
BRANCH_DIRECT_JUMP: 4318196 2.1591%
BRANCH_INDIRECT: 0 0%
BRANCH_CONDITIONAL: 42641844 21.3209%
BRANCH_DIRECT_CALL: 2160361 1.08018%
BRANCH_INDIRECT_CALL: 0 0%
BRANCH_RETURN: 2160362 1.08018%
BRANCH_OTHER: 0 0%

DRAM PAGES: 1048576
Allocated PAGES: 76297
