
*** ChampSim Multicore Out-of-Order Simulator ***

Warmup Instructions: 50000000
Simulation Instructions: 200000000
Number of CPUs: 1
LLC sets: 2048
LLC ways: 16
L0D sets: 16
L0D ways: 2
ROB size: 352
LQ size: 128
SQ size: 72
Secure Berti: OFF
Berti: OFF
Berti Fill: OFF
On commit prefetching: ON
Hit-based filter: ON
Time-guarding: ON
Free-slotting: ON
Leap-frogging: ON
Train prefetcher on L0D bypass: OFF
No translation penalty for prefetchers: OFF
Prefetch to L0D only: OFF
Prefetch to L1D only: OFF
Clean evictions: ON
Commit loads: ON
Commit write: ON
Fill commit loads to L2C, LLC: ON
DRAM IO FREQUENCY: 6400
ROB SIZE: 352
Off-chip DRAM Size: 4096 MB Channels: 1 Width: 64-bit Data Rate: 6400 MT/s
CPU 0 runs /home/sumon/secure_berti/GhostMinion/../../traces/spec/602.gcc_s-2226B.champsimtrace.xz
.xz
BTB has LRU replacement policy
ITLB has LRU replacement policy
DTLB has LRU replacement policy
STLB has LRU replacement policy
L1I has LRU replacement policy
L0D has LRU replacement policy
History Sets: 8
History Ways: 16
BERTI Size: 16
BERTI Stride Size: 16
L1D has LRU replacement policy
L2C has LRU replacement policy
LLC has LRU replacement policy
Heartbeat CPU 0 instructions: 10000002 cycles: 7825574 heartbeat IPC: 1.27786 cumulative IPC: 1.27786 (Simulation time: 0 hr 0 min 53 sec) 
Heartbeat CPU 0 instructions: 20000000 cycles: 15668135 heartbeat IPC: 1.27509 cumulative IPC: 1.27648 (Simulation time: 0 hr 1 min 46 sec) 
Heartbeat CPU 0 instructions: 30000001 cycles: 23570748 heartbeat IPC: 1.2654 cumulative IPC: 1.27276 (Simulation time: 0 hr 2 min 39 sec) 
Heartbeat CPU 0 instructions: 40000002 cycles: 31405184 heartbeat IPC: 1.27642 cumulative IPC: 1.27368 (Simulation time: 0 hr 3 min 31 sec) 
Heartbeat CPU 0 instructions: 50000000 cycles: 39031199 heartbeat IPC: 1.3113 cumulative IPC: 1.28103 (Simulation time: 0 hr 4 min 19 sec) 

Warmup complete CPU 0 instructions: 50000004 cycles: 39031200 (Simulation time: 0 hr 4 min 19 sec) 

Heartbeat CPU 0 instructions: 60000001 cycles: 60033428 heartbeat IPC: 0.47614 cumulative IPC: 0.47614 (Simulation time: 0 hr 5 min 11 sec) 
Heartbeat CPU 0 instructions: 70000000 cycles: 80415509 heartbeat IPC: 0.490627 cumulative IPC: 0.483275 (Simulation time: 0 hr 6 min 4 sec) 
Heartbeat CPU 0 instructions: 80000000 cycles: 101221716 heartbeat IPC: 0.480626 cumulative IPC: 0.482389 (Simulation time: 0 hr 6 min 57 sec) 
Heartbeat CPU 0 instructions: 90000001 cycles: 122199029 heartbeat IPC: 0.476706 cumulative IPC: 0.480955 (Simulation time: 0 hr 7 min 49 sec) 
Heartbeat CPU 0 instructions: 100000001 cycles: 143034699 heartbeat IPC: 0.479946 cumulative IPC: 0.480753 (Simulation time: 0 hr 8 min 42 sec) 
Heartbeat CPU 0 instructions: 110000000 cycles: 163426718 heartbeat IPC: 0.490388 cumulative IPC: 0.482332 (Simulation time: 0 hr 9 min 35 sec) 
Heartbeat CPU 0 instructions: 120000000 cycles: 184577739 heartbeat IPC: 0.47279 cumulative IPC: 0.480946 (Simulation time: 0 hr 10 min 27 sec) 
Heartbeat CPU 0 instructions: 130000001 cycles: 205633850 heartbeat IPC: 0.474922 cumulative IPC: 0.480184 (Simulation time: 0 hr 11 min 19 sec) 
Heartbeat CPU 0 instructions: 140000000 cycles: 226196038 heartbeat IPC: 0.48633 cumulative IPC: 0.48086 (Simulation time: 0 hr 12 min 11 sec) 
Heartbeat CPU 0 instructions: 150000001 cycles: 246802634 heartbeat IPC: 0.485282 cumulative IPC: 0.481298 (Simulation time: 0 hr 13 min 2 sec) 
Heartbeat CPU 0 instructions: 160000002 cycles: 267846653 heartbeat IPC: 0.475194 cumulative IPC: 0.480737 (Simulation time: 0 hr 13 min 52 sec) 
Heartbeat CPU 0 instructions: 170000001 cycles: 288843866 heartbeat IPC: 0.476254 cumulative IPC: 0.48036 (Simulation time: 0 hr 14 min 43 sec) 
Heartbeat CPU 0 instructions: 180000000 cycles: 309183664 heartbeat IPC: 0.491647 cumulative IPC: 0.48121 (Simulation time: 0 hr 15 min 33 sec) 
Heartbeat CPU 0 instructions: 190000002 cycles: 330123654 heartbeat IPC: 0.477555 cumulative IPC: 0.480947 (Simulation time: 0 hr 16 min 22 sec) 
Heartbeat CPU 0 instructions: 200000000 cycles: 351083506 heartbeat IPC: 0.477103 cumulative IPC: 0.480689 (Simulation time: 0 hr 17 min 11 sec) 
Heartbeat CPU 0 instructions: 210000003 cycles: 371815594 heartbeat IPC: 0.482344 cumulative IPC: 0.480792 (Simulation time: 0 hr 18 min 0 sec) 
Heartbeat CPU 0 instructions: 220000000 cycles: 392253430 heartbeat IPC: 0.489288 cumulative IPC: 0.481283 (Simulation time: 0 hr 18 min 47 sec) 
Heartbeat CPU 0 instructions: 230000000 cycles: 413362091 heartbeat IPC: 0.473739 cumulative IPC: 0.480858 (Simulation time: 0 hr 19 min 34 sec) 
Heartbeat CPU 0 instructions: 240000001 cycles: 434419336 heartbeat IPC: 0.474896 cumulative IPC: 0.48054 (Simulation time: 0 hr 20 min 21 sec) 
Heartbeat CPU 0 instructions: 250000000 cycles: 454949576 heartbeat IPC: 0.487086 cumulative IPC: 0.480864 (Simulation time: 0 hr 21 min 7 sec) 
Finished CPU 0 instructions: 200000000 cycles: 415918377 cumulative IPC: 0.480864 (Simulation time: 0 hr 21 min 7 sec) 
 Instruction ID: 250000194

ChampSim completed all CPUs

Region of Interest Statistics

CPU 0 cumulative IPC: 0.480864 instructions: 200000000 cycles: 415918377
ITLB SPEC fills:          0  NON-SPEC fills:          0
ITLB Test counter :          0
ITLB Leapfrog:          0
ITLB MSHR merge:          0
ITLB TOTAL     ACCESS:   34254382  HIT:   34254382  MISS:          0  HIT %:        100  MISS %:          0   MPKI: 0
ITLB LOAD TRANSLATION NON_SPEC    ACCESS:   34254382  HIT:   34254382  MISS:          0  HIT %:        100  MISS %:          0   MPKI: 0
ITLB PREFETCH  REQUESTED:          0  ISSUED:          0  USEFUL:          0  USELESS:          0
ITLB USEFUL LOAD PREFETCHES:          0 PREFETCH ISSUED TO LOWER LEVEL:          0  ACCURACY: -nan
ITLB TIMELY PREFETCHES:          0 LATE PREFETCHES: 0 DROPPED PREFETCHES: 0
ITLB COMMIT LATE PREFETCHES: 0 MISSED OPPORTUNITY: 0 LATE IN PQ: 0 UNCOVERED: 0
ITLB COMMIT LATE MSHR PREFETCHES: 0
ITLB MPKI TOTAL: 0 MSHR LATE: 0 PQ LATE: 0 COMMIT LATE: 0 MISSED OPPORTUNITY: 0 UNCOVERED: 0
ITLB PREFETCHES SAME FILL-ORIGIN LEVEL: 0 DIFFERENT FILL-ORIGIN LEVEL: 0
ITLB AVERAGE MISS LATENCY: -nan cycles
ITLB AVERAGE MISS LATENCY LOAD: -nan cycles
ITLB AVERAGE MISS LATENCY PREFETCH: -nan cycles
ITLB AVERAGE MSHR OCCUPANCY: 0
ITLB MSHR FULL: 0
ITLB RQ	ACCESS:   34952536	FORWARD:          0	MERGED:     698154	TO_CACHE:   34254382

DTLB SPEC fills:          0  NON-SPEC fills:          0
DTLB Test counter :          0
DTLB Leapfrog:          0
DTLB MSHR merge:          0
DTLB TOTAL     ACCESS:   31468154  HIT:   31194664  MISS:     273490  HIT %:    99.1309  MISS %:   0.869101   MPKI: 1.36745
DTLB LOAD TRANSLATION NON_SPEC    ACCESS:   31468154  HIT:   31194664  MISS:     273490  HIT %:    99.1309  MISS %:   0.869101   MPKI: 1.36745
DTLB PREFETCH  REQUESTED:          0  ISSUED:          0  USEFUL:          0  USELESS:          0
DTLB USEFUL LOAD PREFETCHES:          0 PREFETCH ISSUED TO LOWER LEVEL:          0  ACCURACY: -nan
DTLB TIMELY PREFETCHES:          0 LATE PREFETCHES: 0 DROPPED PREFETCHES: 0
DTLB COMMIT LATE PREFETCHES: 0 MISSED OPPORTUNITY: 0 LATE IN PQ: 0 UNCOVERED: 0
DTLB COMMIT LATE MSHR PREFETCHES: 0
DTLB MPKI TOTAL: 0 MSHR LATE: 0 PQ LATE: 0 COMMIT LATE: 0 MISSED OPPORTUNITY: 0 UNCOVERED: 0
DTLB PREFETCHES SAME FILL-ORIGIN LEVEL: 0 DIFFERENT FILL-ORIGIN LEVEL: 0
DTLB AVERAGE MISS LATENCY: 37.2169 cycles
DTLB AVERAGE MISS LATENCY LOAD: -nan cycles
DTLB AVERAGE MISS LATENCY PREFETCH: -nan cycles
DTLB AVERAGE MSHR OCCUPANCY: 0.00375469
DTLB MSHR FULL: 0
DTLB RQ	ACCESS:   37015981	FORWARD:          0	MERGED:    5547594	TO_CACHE:   31468387

STLB SPEC fills:          0  NON-SPEC fills:          0
STLB Test counter :          0
STLB Leapfrog:          0
STLB MSHR merge:          0
STLB TOTAL     ACCESS:   28684591  HIT:   28420845  MISS:     263746  HIT %:    99.0805  MISS %:   0.919469   MPKI: 1.31873
STLB LOAD TRANSLATION NON_SPEC    ACCESS:     273490  HIT:     229871  MISS:      43619  HIT %:     84.051  MISS %:     15.949   MPKI: 0.218095
STLB TRANSLATION FROM L1D PREFETCHER NON_SPEC    ACCESS:   28411101  HIT:   28190974  MISS:     220127  HIT %:    99.2252  MISS %:   0.774792   MPKI: 1.10064
STLB PREFETCH  REQUESTED:          0  ISSUED:          0  USEFUL:     220010  USELESS:        116
STLB USEFUL LOAD PREFETCHES:     220010 PREFETCH ISSUED TO LOWER LEVEL:          0  ACCURACY: inf
STLB TIMELY PREFETCHES:     220010 LATE PREFETCHES: 677 DROPPED PREFETCHES: 402366
STLB COMMIT LATE PREFETCHES: 0 MISSED OPPORTUNITY: 0 LATE IN PQ: 0 UNCOVERED: 0
STLB COMMIT LATE MSHR PREFETCHES: 0
STLB MPKI TOTAL: 0 MSHR LATE: 0.003385 PQ LATE: 0 COMMIT LATE: 0 MISSED OPPORTUNITY: 0 UNCOVERED: 0
STLB PREFETCHES SAME FILL-ORIGIN LEVEL: 0 DIFFERENT FILL-ORIGIN LEVEL: 0
STLB AVERAGE MISS LATENCY: 111.836 cycles
STLB AVERAGE MISS LATENCY LOAD: -nan cycles
STLB AVERAGE MISS LATENCY PREFETCH: -nan cycles
STLB AVERAGE MSHR OCCUPANCY: 0.101916
STLB MSHR FULL: 0
STLB RQ	ACCESS:  139949279	FORWARD:          0	MERGED:  110094760	TO_CACHE:   29854519

STLB Hit, L1D data hit: 0
STLB Hit, L2C data hit: 0
STLB Hit, LLC data hit: 0
STLB Hit, LLC data miss: 0
STLB STLB hints to L2: 0
L0D SPEC fills:    8993782  NON-SPEC fills:          0
L0D TimeGuard Request with older TS:      48131 Restricted eviction:       1950 read:      92367
L0D Test counter :          0
L0D Leapfrog:          0
L0D MSHR merge:     377950
L0D TOTAL     ACCESS:   33685168  HIT:    1423516  MISS:   32261652  HIT %:    4.22594  MISS %:    95.7741   MPKI: 161.308
L0D LOAD      TOTAL       ACCESS:   33685168  HIT:    1423516  MISS:   32261652  HIT %:    4.22594  MISS %:    95.7741   MPKI: 161.308
L0D LOAD      NON_SPEC    ACCESS:   23313198  HIT:      47278  MISS:   23265920  HIT %:   0.202795  MISS %:    99.7972   MPKI: 116.33
L0D LOAD      SPEC        ACCESS:   10371970  HIT:    1376238  MISS:    8995732  HIT %:    13.2688  MISS %:    86.7312   MPKI: 44.9787
L0D PREFETCH  REQUESTED:          0  ISSUED:          0  USEFUL:          0  USELESS:          0
L0D USEFUL LOAD PREFETCHES:          0 PREFETCH ISSUED TO LOWER LEVEL:          0  ACCURACY: -nan
L0D TIMELY PREFETCHES:          0 LATE PREFETCHES: 0 DROPPED PREFETCHES: 0
L0D COMMIT LATE PREFETCHES: 0 MISSED OPPORTUNITY: 0 LATE IN PQ: 0 UNCOVERED: 0
L0D COMMIT LATE MSHR PREFETCHES: 0
L0D MPKI TOTAL: 163.198 MSHR LATE: 0 PQ LATE: 0 COMMIT LATE: 0 MISSED OPPORTUNITY: 0 UNCOVERED: 0
L0D PREFETCHES SAME FILL-ORIGIN LEVEL: 0 DIFFERENT FILL-ORIGIN LEVEL: 0
L0D AVERAGE MISS LATENCY: 6.41861 cycles
L0D AVERAGE MISS LATENCY LOAD: 6.41861 cycles
L0D AVERAGE MISS LATENCY PREFETCH: -nan cycles
L0D AVERAGE MSHR OCCUPANCY: 0.265029
L0D MSHR FULL: 1.67336e-06
L0D RQ	ACCESS:   71767716	FORWARD:          0	MERGED:   37704599	TO_CACHE:   34063117
L0D WQ	ACCESS:    2952864	FORWARD:          0	MERGED:          0	TO_CACHE:    2952864

L1D SPEC fills:          0  NON-SPEC fills:     410516
L1D Test counter :     208967
L1D Leapfrog:          0
L1D MSHR merge:     257287
L1D TOTAL     ACCESS:  147236115  HIT:  132236266  MISS:   14999849  HIT %:    89.8124  MISS %:    10.1876   MPKI: 74.9992
L1D LOAD      TOTAL       ACCESS:   32261642  HIT:   31519659  MISS:     741983  HIT %:    97.7001  MISS %:    2.29989   MPKI: 3.70992
L1D LOAD      NON_SPEC    ACCESS:   23265920  HIT:   22855404  MISS:     410516  HIT %:    98.2355  MISS %:    1.76445   MPKI: 2.05258
L1D LOAD      SPEC        ACCESS:    8995722  HIT:    8664255  MISS:     331467  HIT %:    96.3153  MISS %:    3.68472   MPKI: 1.65734
L1D RFO       NON_SPEC    ACCESS:    2945715  HIT:    2940416  MISS:       5299  HIT %:    99.8201  MISS %:   0.179888   MPKI: 0.026495
L1D PREFETCH  NON_SPEC    ACCESS:  110893026  HIT:   96969912  MISS:   13923114  HIT %:    87.4446  MISS %:    12.5554   MPKI: 69.6156
L1D COMMIT LOAD NON_SPEC    ACCESS:     671714  HIT:     670831  MISS:        883  HIT %:    99.8685  MISS %:   0.131455   MPKI: 0.004415
L1D COMMIT WRITE NON_SPEC    ACCESS:     464018  HIT:     135448  MISS:     328570  HIT %:    29.1902  MISS %:    70.8098   MPKI: 1.64285
L1D PREFETCH  REQUESTED:  233652207  ISSUED:  220527138  USEFUL:   13466913  USELESS:     456183
L1D USEFUL LOAD PREFETCHES:   13466913 PREFETCH ISSUED TO LOWER LEVEL:   34058504  ACCURACY: 39.5405
L1D TIMELY PREFETCHES:   13466913 LATE PREFETCHES: 257277 DROPPED PREFETCHES: 913565
L1D COMMIT LATE PREFETCHES: 0 MISSED OPPORTUNITY: 0 LATE IN PQ: 0 UNCOVERED: 0
L1D COMMIT LATE MSHR PREFETCHES: 0
L1D MPKI TOTAL: 3.70996 MSHR LATE: 1.28638 PQ LATE: 0 COMMIT LATE: 0 MISSED OPPORTUNITY: 0 UNCOVERED: 0
L1D PREFETCHES SAME FILL-ORIGIN LEVEL: 14265971 DIFFERENT FILL-ORIGIN LEVEL: 19792533
L1D AVERAGE MISS LATENCY: 68.8805 cycles
L1D AVERAGE MISS LATENCY LOAD: 56.2364 cycles
L1D AVERAGE MISS LATENCY PREFETCH: 71.155 cycles
L1D AVERAGE MSHR OCCUPANCY: 2.44782
L1D MSHR FULL: 3.98984e-05
L1D RQ	ACCESS:   33085380	FORWARD:          0	MERGED:     146192	TO_CACHE:   32933367
L1D WQ	ACCESS:    3416882	FORWARD:       5821	MERGED:       7117	TO_CACHE:    3409765
L1D PQ	ACCESS:  220527138	FORWARD:          0	MERGED:   80851349	TO_CACHE:  139675789

L1D UNIQUE REGIONS ACCESSED: 0
L1D REGIONS CONFLICTS: 0
L1D Cross Page Prefetch Requests: 41593532
L1D Same Page Prefetch Requests: 228785996
L1D ROI Sum of L1D PQ occupancy: 2570201763
L1D PREFETCHES PUSHED FROM L2C: 0
L1I SPEC fills:          0  NON-SPEC fills:          0
L1I Test counter :          0
L1I Leapfrog:          0
L1I MSHR merge:          2
L1I TOTAL     ACCESS:   34952533  HIT:   34952508  MISS:         25  HIT %:    99.9999  MISS %: 7.15256e-05   MPKI: 0.000125
L1I LOAD      TOTAL       ACCESS:   34952533  HIT:   34952508  MISS:         25  HIT %:    99.9999  MISS %: 7.15256e-05   MPKI: 0.000125
L1I LOAD      NON_SPEC    ACCESS:   34952533  HIT:   34952508  MISS:         25  HIT %:    99.9999  MISS %: 7.15256e-05   MPKI: 0.000125
L1I PREFETCH  REQUESTED:          0  ISSUED:          0  USEFUL:          0  USELESS:          0
L1I USEFUL LOAD PREFETCHES:          0 PREFETCH ISSUED TO LOWER LEVEL:          0  ACCURACY: -nan
L1I TIMELY PREFETCHES:          0 LATE PREFETCHES: 0 DROPPED PREFETCHES: 0
L1I COMMIT LATE PREFETCHES: 0 MISSED OPPORTUNITY: 0 LATE IN PQ: 0 UNCOVERED: 0
L1I COMMIT LATE MSHR PREFETCHES: 0
L1I MPKI TOTAL: 0.000135 MSHR LATE: 0 PQ LATE: 0 COMMIT LATE: 0 MISSED OPPORTUNITY: 0 UNCOVERED: 0
L1I PREFETCHES SAME FILL-ORIGIN LEVEL: 0 DIFFERENT FILL-ORIGIN LEVEL: 0
L1I AVERAGE MISS LATENCY: 210 cycles
L1I AVERAGE MISS LATENCY LOAD: 210 cycles
L1I AVERAGE MISS LATENCY PREFETCH: -nan cycles
L1I AVERAGE MSHR OCCUPANCY: 3.71933e-07
L1I MSHR FULL: 0
L1I RQ	ACCESS:   52997998	FORWARD:          0	MERGED:   18045462	TO_CACHE:   34952536

BTB SPEC fills:          0  NON-SPEC fills:          0
BTB Test counter :          0
BTB Leapfrog:          0
BTB MSHR merge:          0
BTB TOTAL     ACCESS:   47939655  HIT:   47938593  MISS:       1062  HIT %:    99.9978  MISS %: 0.00221529   MPKI: 0.00531
BTB BRANCH_DIRECT_JUMP	ACCESS:     685292  HIT:     685256  MISS:         36
BTB BRANCH_INDIRECT	ACCESS:          0  HIT:          0  MISS:          0
BTB BRANCH_CONDITIONAL	ACCESS:   46577562  HIT:   46577484  MISS:         78
BTB BRANCH_DIRECT_CALL	ACCESS:     338400  HIT:     338384  MISS:         16
BTB BRANCH_INDIRECT_CALL	ACCESS:          0  HIT:          0  MISS:          0
BTB BRANCH_RETURN	ACCESS:     338401  HIT:     337469  MISS:        932
BTB BRANCH_OTHER ACCESS:          0  HIT:          0  MISS:          0

L2C SPEC fills:          0  NON-SPEC fills:      88270
L2C Test counter :     206596
L2C Leapfrog:          0
L2C MSHR merge:       7458
L2C TOTAL     ACCESS:   31693177  HIT:   16940008  MISS:   14753169  HIT %:      53.45  MISS %:      46.55   MPKI: 73.7658
L2C LOAD      TOTAL       ACCESS:     484688  HIT:     321794  MISS:     162894  HIT %:     66.392  MISS %:     33.608   MPKI: 0.81447
L2C LOAD      NON_SPEC    ACCESS:     181441  HIT:      93146  MISS:      88295  HIT %:    51.3368  MISS %:    48.6632   MPKI: 0.441475
L2C LOAD      SPEC        ACCESS:     303247  HIT:     228648  MISS:      74599  HIT %:    75.3999  MISS %:    24.6001   MPKI: 0.372995
L2C RFO       NON_SPEC    ACCESS:       5288  HIT:       1967  MISS:       3321  HIT %:    37.1974  MISS %:    62.8026   MPKI: 0.016605
L2C PREFETCH  NON_SPEC    ACCESS:   27656459  HIT:   13212588  MISS:   14443871  HIT %:     47.774  MISS %:     52.226   MPKI: 72.2194
L2C WRITEBACK NON_SPEC    ACCESS:       6252  HIT:       6210  MISS:         42  HIT %:    99.3282  MISS %:   0.671785   MPKI: 0.00021
L2C CLEAN_EVICTION NON_SPEC    ACCESS:     208967  HIT:     134650  MISS:      74317  HIT %:     64.436  MISS %:     35.564   MPKI: 0.371585
L2C COMMIT LOAD NON_SPEC    ACCESS:        883  HIT:        564  MISS:        319  HIT %:    63.8732  MISS %:    36.1268   MPKI: 0.001595
L2C LOAD TRANSLATION NON_SPEC    ACCESS:     214998  HIT:     182683  MISS:      32315  HIT %:    84.9696  MISS %:    15.0304   MPKI: 0.161575
L2C TRANSLATION FROM L1D PREFETCHER NON_SPEC    ACCESS:    3115642  HIT:    3079552  MISS:      36090  HIT %:    98.8417  MISS %:    1.15835   MPKI: 0.18045
L2C PREFETCH  REQUESTED:          0  ISSUED:          0  USEFUL:     161282  USELESS:   14318765
L2C USEFUL LOAD PREFETCHES:     161282 PREFETCH ISSUED TO LOWER LEVEL:   14451426  ACCURACY: 1.11603
L2C TIMELY PREFETCHES:     161282 LATE PREFETCHES: 7551 DROPPED PREFETCHES: 0
L2C COMMIT LATE PREFETCHES: 0 MISSED OPPORTUNITY: 0 LATE IN PQ: 0 UNCOVERED: 0
L2C COMMIT LATE MSHR PREFETCHES: 0
L2C MPKI TOTAL: 0.81447 MSHR LATE: 0.037755 PQ LATE: 0 COMMIT LATE: 0 MISSED OPPORTUNITY: 0 UNCOVERED: 0
L2C PREFETCHES SAME FILL-ORIGIN LEVEL: 8333580 DIFFERENT FILL-ORIGIN LEVEL: 0
L2C AVERAGE MISS LATENCY: 124.719 cycles
L2C AVERAGE MISS LATENCY LOAD: 135.16 cycles
L2C AVERAGE MISS LATENCY PREFETCH: 124.912 cycles
L2C AVERAGE MSHR OCCUPANCY: 3.0882
L2C MSHR FULL: 0.00238413
L2C RQ	ACCESS:    3821542	FORWARD:          0	MERGED:          0	TO_CACHE:    3821499
L2C WQ	ACCESS:     215219	FORWARD:         43	MERGED:          0	TO_CACHE:     215219
L2C PQ	ACCESS:   33652299	FORWARD:          0	MERGED:      20912	TO_CACHE:   33631387

L2C Instructions Evicting Data 25
L2C Translations Evicting Data 68121
L2C Data Evicting Data 14468085
L2C Instructions Evicting Instructions 0
L2C Translations Evicting Instructions 0
L2C Data Evicting Instructions 23
L2C Instructions Evicting Translations 0
L2C Translations Evicting Translations 284
L2C Data Evicting Translations 67673
L2C Dense regions hint from L2: 0
PSCL5 SPEC fills:          0  NON-SPEC fills:          0
PSCL5 Test counter :          0
PSCL5 Leapfrog:          0
PSCL5 MSHR merge:          0
PSCL5 TOTAL     ACCESS:          0  HIT:          0  MISS:          0  HIT %:       -nan  MISS %:       -nan   MPKI: 0
PSCL5 PREFETCH  REQUESTED:          0  ISSUED:          0  USEFUL:          0  USELESS:          0
PSCL5 USEFUL LOAD PREFETCHES:          0 PREFETCH ISSUED TO LOWER LEVEL:          0  ACCURACY: -nan
PSCL5 TIMELY PREFETCHES:          0 LATE PREFETCHES: 0 DROPPED PREFETCHES: 0
PSCL5 COMMIT LATE PREFETCHES: 0 MISSED OPPORTUNITY: 0 LATE IN PQ: 0 UNCOVERED: 0
PSCL5 COMMIT LATE MSHR PREFETCHES: 0
PSCL5 MPKI TOTAL: 0 MSHR LATE: 0 PQ LATE: 0 COMMIT LATE: 0 MISSED OPPORTUNITY: 0 UNCOVERED: 0
PSCL5 PREFETCHES SAME FILL-ORIGIN LEVEL: 0 DIFFERENT FILL-ORIGIN LEVEL: 0

PSCL4 SPEC fills:          0  NON-SPEC fills:          0
PSCL4 Test counter :          0
PSCL4 Leapfrog:          0
PSCL4 MSHR merge:          0
PSCL4 TOTAL     ACCESS:          0  HIT:          0  MISS:          0  HIT %:       -nan  MISS %:       -nan   MPKI: 0
PSCL4 PREFETCH  REQUESTED:          0  ISSUED:          0  USEFUL:          0  USELESS:          0
PSCL4 USEFUL LOAD PREFETCHES:          0 PREFETCH ISSUED TO LOWER LEVEL:          0  ACCURACY: -nan
PSCL4 TIMELY PREFETCHES:          0 LATE PREFETCHES: 0 DROPPED PREFETCHES: 0
PSCL4 COMMIT LATE PREFETCHES: 0 MISSED OPPORTUNITY: 0 LATE IN PQ: 0 UNCOVERED: 0
PSCL4 COMMIT LATE MSHR PREFETCHES: 0
PSCL4 MPKI TOTAL: 0 MSHR LATE: 0 PQ LATE: 0 COMMIT LATE: 0 MISSED OPPORTUNITY: 0 UNCOVERED: 0
PSCL4 PREFETCHES SAME FILL-ORIGIN LEVEL: 0 DIFFERENT FILL-ORIGIN LEVEL: 0

PSCL3 SPEC fills:          0  NON-SPEC fills:          0
PSCL3 Test counter :          0
PSCL3 Leapfrog:          0
PSCL3 MSHR merge:          0
PSCL3 TOTAL     ACCESS:          0  HIT:          0  MISS:          0  HIT %:       -nan  MISS %:       -nan   MPKI: 0
PSCL3 PREFETCH  REQUESTED:          0  ISSUED:          0  USEFUL:          0  USELESS:          0
PSCL3 USEFUL LOAD PREFETCHES:          0 PREFETCH ISSUED TO LOWER LEVEL:          0  ACCURACY: -nan
PSCL3 TIMELY PREFETCHES:          0 LATE PREFETCHES: 0 DROPPED PREFETCHES: 0
PSCL3 COMMIT LATE PREFETCHES: 0 MISSED OPPORTUNITY: 0 LATE IN PQ: 0 UNCOVERED: 0
PSCL3 COMMIT LATE MSHR PREFETCHES: 0
PSCL3 MPKI TOTAL: 0 MSHR LATE: 0 PQ LATE: 0 COMMIT LATE: 0 MISSED OPPORTUNITY: 0 UNCOVERED: 0
PSCL3 PREFETCHES SAME FILL-ORIGIN LEVEL: 0 DIFFERENT FILL-ORIGIN LEVEL: 0

PSCL2 SPEC fills:          0  NON-SPEC fills:          0
PSCL2 Test counter :          0
PSCL2 Leapfrog:          0
PSCL2 MSHR merge:          0
PSCL2 TOTAL     ACCESS:          0  HIT:          0  MISS:          0  HIT %:       -nan  MISS %:       -nan   MPKI: 0
PSCL2 PREFETCH  REQUESTED:          0  ISSUED:          0  USEFUL:          0  USELESS:          0
PSCL2 USEFUL LOAD PREFETCHES:          0 PREFETCH ISSUED TO LOWER LEVEL:          0  ACCURACY: -nan
PSCL2 TIMELY PREFETCHES:          0 LATE PREFETCHES: 0 DROPPED PREFETCHES: 0
PSCL2 COMMIT LATE PREFETCHES: 0 MISSED OPPORTUNITY: 0 LATE IN PQ: 0 UNCOVERED: 0
PSCL2 COMMIT LATE MSHR PREFETCHES: 0
PSCL2 MPKI TOTAL: 0 MSHR LATE: 0 PQ LATE: 0 COMMIT LATE: 0 MISSED OPPORTUNITY: 0 UNCOVERED: 0
PSCL2 PREFETCHES SAME FILL-ORIGIN LEVEL: 0 DIFFERENT FILL-ORIGIN LEVEL: 0

LLC SPEC fills:          0  NON-SPEC fills:      82466
LLC Test counter :     183964
LLC Leapfrog:          0
LLC MSHR merge:          0
LLC TOTAL     ACCESS:   14891572  HIT:     212431  MISS:   14679141  HIT %:    1.42652  MISS %:    98.5735   MPKI: 73.3957
LLC LOAD      TOTAL       ACCESS:     155427  HIT:      24559  MISS:     130868  HIT %:     15.801  MISS %:     84.199   MPKI: 0.65434
LLC LOAD      NON_SPEC    ACCESS:      83860  HIT:       1369  MISS:      82491  HIT %:    1.63248  MISS %:    98.3675   MPKI: 0.412455
LLC LOAD      SPEC        ACCESS:      71567  HIT:      23190  MISS:      48377  HIT %:    32.4032  MISS %:    67.5968   MPKI: 0.241885
LLC RFO       NON_SPEC    ACCESS:       3228  HIT:          0  MISS:       3228  HIT %:          0  MISS %:        100   MPKI: 0.01614
LLC PREFETCH  NON_SPEC    ACCESS:   14451422  HIT:      19282  MISS:   14432140  HIT %:   0.133426  MISS %:    99.8666   MPKI: 72.1607
LLC WRITEBACK NON_SPEC    ACCESS:       6175  HIT:       6142  MISS:         33  HIT %:    99.4656  MISS %:   0.534413   MPKI: 0.000165
LLC CLEAN_EVICTION NON_SPEC    ACCESS:     206596  HIT:     158380  MISS:      48216  HIT %:    76.6617  MISS %:    23.3383   MPKI: 0.24108
LLC COMMIT LOAD NON_SPEC    ACCESS:        319  HIT:         63  MISS:        256  HIT %:    19.7492  MISS %:    80.2508   MPKI: 0.00128
LLC LOAD TRANSLATION NON_SPEC    ACCESS:      32315  HIT:       2545  MISS:      29770  HIT %:     7.8756  MISS %:    92.1244   MPKI: 0.14885
LLC TRANSLATION FROM L1D PREFETCHER NON_SPEC    ACCESS:      36090  HIT:       1460  MISS:      34630  HIT %:    4.04544  MISS %:    95.9546   MPKI: 0.17315
LLC PREFETCH  REQUESTED:          0  ISSUED:          0  USEFUL:       1643  USELESS:   14465059
LLC USEFUL LOAD PREFETCHES:       1643 PREFETCH ISSUED TO LOWER LEVEL:   14432143  ACCURACY: 0.0113843
LLC TIMELY PREFETCHES:       1643 LATE PREFETCHES: 0 DROPPED PREFETCHES: 0
LLC COMMIT LATE PREFETCHES: 0 MISSED OPPORTUNITY: 0 LATE IN PQ: 0 UNCOVERED: 0
LLC COMMIT LATE MSHR PREFETCHES: 0
LLC MPKI TOTAL: 0.65434 MSHR LATE: 0 PQ LATE: 0 COMMIT LATE: 0 MISSED OPPORTUNITY: 0 UNCOVERED: 0
LLC PREFETCHES SAME FILL-ORIGIN LEVEL: 0 DIFFERENT FILL-ORIGIN LEVEL: 0
LLC AVERAGE MISS LATENCY: 95.4596 cycles
LLC AVERAGE MISS LATENCY LOAD: 133.952 cycles
LLC AVERAGE MISS LATENCY PREFETCH: 95.0753 cycles
LLC AVERAGE MSHR OCCUPANCY: 0.990131
LLC MSHR FULL: 0
LLC RQ	ACCESS:     227388	FORWARD:          0	MERGED:          0	TO_CACHE:     227379
LLC WQ	ACCESS:     212771	FORWARD:          9	MERGED:          0	TO_CACHE:     212771
LLC PQ	ACCESS:   14451426	FORWARD:          0	MERGED:          0	TO_CACHE:   14451426

LLC Dense regions hint to LLC: 0

RAW hits: 19860
Loads Generated: 71787579
Loads sent to L1D: 71767716
Stores Generated: 2952864
Stores sent to L1D: 2952864
Major fault: 0 Minor fault: 49083
Allocated PAGES: 49083
Total Load insts: 89692347
Total Non-spec loads: 23778749
Percentage of speculative loads: 73.4885

LeapFrogging counter: 54
Commit hits: 8983209 miss: 39448076
Commit hit %: 18.5484 miss %: 81.4516
Commits not translated: 0
Loads retired: 741983
Stores retired: 2952864
Cache fills: 741983
L1D response latency: 56.2364 cycles
Load retirement latency: 103.524 cycles
OOO test counter: 0
Discarded buffer inserts: 8983209 hits: 36886 hit %: 0.410611
LATENCY_FILL: 6.62045 322647

DRAM Statistics
 CHANNEL 0
 RQ ROW_BUFFER_HIT:   12411665  ROW_BUFFER_MISS:    2219227
 DBUS_CONGESTED:      51156
 WQ ROW_BUFFER_HIT:      41826  ROW_BUFFER_MISS:     148292  FULL:          0

 AVG_CONGESTED_CYCLE: 4
 All warmup complete: 2
Channel 0 Bank busy for read cycles: 0
Channel 0 Bank busy for write cycles: 0
Channel 0
Rank 0
0banks busy for read cycles: 48081979
0banks busy for write cycles: 42282
1banks busy for read cycles: 62499032
1banks busy for write cycles: 9719127
2banks busy for read cycles: 118595383
2banks busy for write cycles: 5900414
3banks busy for read cycles: 75833215
3banks busy for write cycles: 4157515
4banks busy for read cycles: 36875615
4banks busy for write cycles: 3015010
5banks busy for read cycles: 20657958
5banks busy for write cycles: 2214887
6banks busy for read cycles: 10609348
6banks busy for write cycles: 1527320
7banks busy for read cycles: 6886684
7banks busy for write cycles: 882662
8banks busy for read cycles: 7995563
8banks busy for write cycles: 424384

CPU 0 Branch Prediction Accuracy: 99.7034% MPKI: 1.05731 Average ROB Occupancy at Mispredict: 220.519
Branch types
NOT_BRANCH: 128713555 64.3568%
BRANCH_DIRECT_JUMP: 685292 0.342646%
BRANCH_INDIRECT: 0 0%
BRANCH_CONDITIONAL: 69924164 34.9621%
BRANCH_DIRECT_CALL: 338400 0.1692%
BRANCH_INDIRECT_CALL: 0 0%
BRANCH_RETURN: 338401 0.169201%
BRANCH_OTHER: 0 0%

DRAM PAGES: 1048576
Allocated PAGES: 49083
