
*** ChampSim Multicore Out-of-Order Simulator ***

Warmup Instructions: 50000000
Simulation Instructions: 200000000
Number of CPUs: 1
LLC sets: 2048
LLC ways: 16
L0D sets: 16
L0D ways: 2
ROB size: 352
LQ size: 128
SQ size: 72
Secure Berti: OFF
Berti: OFF
Berti Fill: OFF
On commit prefetching: ON
Hit-based filter: ON
Time-guarding: ON
Free-slotting: ON
Leap-frogging: ON
Train prefetcher on L0D bypass: OFF
No translation penalty for prefetchers: OFF
Prefetch to L0D only: OFF
Prefetch to L1D only: OFF
Clean evictions: ON
Commit loads: ON
Commit write: ON
Fill commit loads to L2C, LLC: ON
DRAM IO FREQUENCY: 6400
ROB SIZE: 352
Off-chip DRAM Size: 4096 MB Channels: 1 Width: 64-bit Data Rate: 6400 MT/s
CPU 0 runs /home/sumon/secure_berti/GhostMinion/../../traces/spec/603.bwaves_s-891B.champsimtrace.xz
.xz
BTB has LRU replacement policy
ITLB has LRU replacement policy
DTLB has LRU replacement policy
STLB has LRU replacement policy
L1I has LRU replacement policy
L0D has LRU replacement policy
History Sets: 8
History Ways: 16
BERTI Size: 16
BERTI Stride Size: 16
L1D has LRU replacement policy
L2C has LRU replacement policy
LLC has LRU replacement policy
Heartbeat CPU 0 instructions: 10000003 cycles: 2782829 heartbeat IPC: 3.59347 cumulative IPC: 3.59347 (Simulation time: 0 hr 0 min 35 sec) 
Heartbeat CPU 0 instructions: 20000003 cycles: 5565492 heartbeat IPC: 3.59368 cumulative IPC: 3.59357 (Simulation time: 0 hr 1 min 9 sec) 
Heartbeat CPU 0 instructions: 30000003 cycles: 8348322 heartbeat IPC: 3.59346 cumulative IPC: 3.59354 (Simulation time: 0 hr 1 min 42 sec) 
Heartbeat CPU 0 instructions: 40000000 cycles: 11130949 heartbeat IPC: 3.59373 cumulative IPC: 3.59358 (Simulation time: 0 hr 2 min 17 sec) 
Heartbeat CPU 0 instructions: 50000002 cycles: 14067381 heartbeat IPC: 3.40549 cumulative IPC: 3.55432 (Simulation time: 0 hr 2 min 41 sec) 

Warmup complete CPU 0 instructions: 50000002 cycles: 14067381 (Simulation time: 0 hr 2 min 41 sec) 

Heartbeat CPU 0 instructions: 60000002 cycles: 27842858 heartbeat IPC: 0.725928 cumulative IPC: 0.725928 (Simulation time: 0 hr 3 min 15 sec) 
Heartbeat CPU 0 instructions: 70000001 cycles: 41597182 heartbeat IPC: 0.727044 cumulative IPC: 0.726485 (Simulation time: 0 hr 3 min 49 sec) 
Heartbeat CPU 0 instructions: 80000000 cycles: 55351820 heartbeat IPC: 0.727027 cumulative IPC: 0.726666 (Simulation time: 0 hr 4 min 24 sec) 
Heartbeat CPU 0 instructions: 90000001 cycles: 69106882 heartbeat IPC: 0.727005 cumulative IPC: 0.726751 (Simulation time: 0 hr 4 min 58 sec) 
Heartbeat CPU 0 instructions: 100000000 cycles: 82860244 heartbeat IPC: 0.727095 cumulative IPC: 0.72682 (Simulation time: 0 hr 5 min 33 sec) 
Heartbeat CPU 0 instructions: 110000000 cycles: 96615190 heartbeat IPC: 0.727011 cumulative IPC: 0.726851 (Simulation time: 0 hr 6 min 7 sec) 
Heartbeat CPU 0 instructions: 120000001 cycles: 110369650 heartbeat IPC: 0.727037 cumulative IPC: 0.726878 (Simulation time: 0 hr 6 min 42 sec) 
Heartbeat CPU 0 instructions: 130000000 cycles: 124123440 heartbeat IPC: 0.727072 cumulative IPC: 0.726902 (Simulation time: 0 hr 7 min 17 sec) 
Heartbeat CPU 0 instructions: 140000001 cycles: 137878790 heartbeat IPC: 0.72699 cumulative IPC: 0.726912 (Simulation time: 0 hr 7 min 52 sec) 
Heartbeat CPU 0 instructions: 150000000 cycles: 151633887 heartbeat IPC: 0.727003 cumulative IPC: 0.726921 (Simulation time: 0 hr 8 min 27 sec) 
Heartbeat CPU 0 instructions: 160000000 cycles: 165389586 heartbeat IPC: 0.726971 cumulative IPC: 0.726926 (Simulation time: 0 hr 9 min 2 sec) 
Heartbeat CPU 0 instructions: 170000000 cycles: 179065450 heartbeat IPC: 0.731215 cumulative IPC: 0.727281 (Simulation time: 0 hr 9 min 36 sec) 
Heartbeat CPU 0 instructions: 180000001 cycles: 192583380 heartbeat IPC: 0.739758 cumulative IPC: 0.728226 (Simulation time: 0 hr 10 min 10 sec) 
Heartbeat CPU 0 instructions: 190000002 cycles: 205522973 heartbeat IPC: 0.772822 cumulative IPC: 0.73124 (Simulation time: 0 hr 10 min 50 sec) 
Heartbeat CPU 0 instructions: 200000003 cycles: 217732881 heartbeat IPC: 0.819007 cumulative IPC: 0.736502 (Simulation time: 0 hr 11 min 36 sec) 
Heartbeat CPU 0 instructions: 210000001 cycles: 229942001 heartbeat IPC: 0.81906 cumulative IPC: 0.741171 (Simulation time: 0 hr 12 min 22 sec) 
Heartbeat CPU 0 instructions: 220000000 cycles: 242151488 heartbeat IPC: 0.819035 cumulative IPC: 0.745339 (Simulation time: 0 hr 13 min 8 sec) 
Heartbeat CPU 0 instructions: 230000001 cycles: 254360482 heartbeat IPC: 0.819068 cumulative IPC: 0.749085 (Simulation time: 0 hr 13 min 54 sec) 
Heartbeat CPU 0 instructions: 240000000 cycles: 266568980 heartbeat IPC: 0.819102 cumulative IPC: 0.75247 (Simulation time: 0 hr 14 min 39 sec) 
Heartbeat CPU 0 instructions: 250000001 cycles: 278778322 heartbeat IPC: 0.819045 cumulative IPC: 0.755541 (Simulation time: 0 hr 15 min 24 sec) 
Finished CPU 0 instructions: 200000002 cycles: 264710942 cumulative IPC: 0.755541 (Simulation time: 0 hr 15 min 24 sec) 
 Instruction ID: 250000030

ChampSim completed all CPUs

Region of Interest Statistics

CPU 0 cumulative IPC: 0.755541 instructions: 200000002 cycles: 264710942
ITLB SPEC fills:          0  NON-SPEC fills:          0
ITLB Test counter :          0
ITLB Leapfrog:          0
ITLB MSHR merge:          0
ITLB TOTAL     ACCESS:   33460185  HIT:   33460184  MISS:          1  HIT %:        100  MISS %: 2.98863e-06   MPKI: 5e-06
ITLB LOAD TRANSLATION NON_SPEC    ACCESS:   33460185  HIT:   33460184  MISS:          1  HIT %:        100  MISS %: 2.98863e-06   MPKI: 5e-06
ITLB PREFETCH  REQUESTED:          0  ISSUED:          0  USEFUL:          0  USELESS:          0
ITLB USEFUL LOAD PREFETCHES:          0 PREFETCH ISSUED TO LOWER LEVEL:          0  ACCURACY: -nan
ITLB TIMELY PREFETCHES:          0 LATE PREFETCHES: 0 DROPPED PREFETCHES: 0
ITLB COMMIT LATE PREFETCHES: 0 MISSED OPPORTUNITY: 0 LATE IN PQ: 0 UNCOVERED: 0
ITLB COMMIT LATE MSHR PREFETCHES: 0
ITLB MPKI TOTAL: 0 MSHR LATE: 0 PQ LATE: 0 COMMIT LATE: 0 MISSED OPPORTUNITY: 0 UNCOVERED: 0
ITLB PREFETCHES SAME FILL-ORIGIN LEVEL: 0 DIFFERENT FILL-ORIGIN LEVEL: 0
ITLB AVERAGE MISS LATENCY: 764 cycles
ITLB AVERAGE MISS LATENCY LOAD: -nan cycles
ITLB AVERAGE MISS LATENCY PREFETCH: -nan cycles
ITLB AVERAGE MSHR OCCUPANCY: 2.98863e-08
ITLB MSHR FULL: 0
ITLB RQ	ACCESS:   34848483	FORWARD:          0	MERGED:    1388298	TO_CACHE:   33460185

DTLB SPEC fills:          0  NON-SPEC fills:          0
DTLB Test counter :          0
DTLB Leapfrog:          0
DTLB MSHR merge:          0
DTLB TOTAL     ACCESS:   32970040  HIT:   32909386  MISS:      60654  HIT %:     99.816  MISS %:   0.183967   MPKI: 0.30327
DTLB LOAD TRANSLATION NON_SPEC    ACCESS:   32970040  HIT:   32909386  MISS:      60654  HIT %:     99.816  MISS %:   0.183967   MPKI: 0.30327
DTLB PREFETCH  REQUESTED:          0  ISSUED:          0  USEFUL:          0  USELESS:          0
DTLB USEFUL LOAD PREFETCHES:          0 PREFETCH ISSUED TO LOWER LEVEL:          0  ACCURACY: -nan
DTLB TIMELY PREFETCHES:          0 LATE PREFETCHES: 0 DROPPED PREFETCHES: 0
DTLB COMMIT LATE PREFETCHES: 0 MISSED OPPORTUNITY: 0 LATE IN PQ: 0 UNCOVERED: 0
DTLB COMMIT LATE MSHR PREFETCHES: 0
DTLB MPKI TOTAL: 0 MSHR LATE: 0 PQ LATE: 0 COMMIT LATE: 0 MISSED OPPORTUNITY: 0 UNCOVERED: 0
DTLB PREFETCHES SAME FILL-ORIGIN LEVEL: 0 DIFFERENT FILL-ORIGIN LEVEL: 0
DTLB AVERAGE MISS LATENCY: 132.601 cycles
DTLB AVERAGE MISS LATENCY LOAD: -nan cycles
DTLB AVERAGE MISS LATENCY PREFETCH: -nan cycles
DTLB AVERAGE MSHR OCCUPANCY: 0.00313167
DTLB MSHR FULL: 0
DTLB RQ	ACCESS:   33542670	FORWARD:          0	MERGED:     541778	TO_CACHE:   33000892

STLB SPEC fills:          0  NON-SPEC fills:          0
STLB Test counter :          0
STLB Leapfrog:          0
STLB MSHR merge:          0
STLB TOTAL     ACCESS:   14844123  HIT:   14783805  MISS:      60318  HIT %:    99.5937  MISS %:   0.406343   MPKI: 0.30159
STLB LOAD TRANSLATION NON_SPEC    ACCESS:      60655  HIT:      18559  MISS:      42096  HIT %:    30.5976  MISS %:    69.4024   MPKI: 0.21048
STLB TRANSLATION FROM L1D PREFETCHER NON_SPEC    ACCESS:   14783468  HIT:   14765246  MISS:      18222  HIT %:    99.8767  MISS %:   0.123259   MPKI: 0.09111
STLB PREFETCH  REQUESTED:          0  ISSUED:          0  USEFUL:      18222  USELESS:          0
STLB USEFUL LOAD PREFETCHES:      18222 PREFETCH ISSUED TO LOWER LEVEL:          0  ACCURACY: inf
STLB TIMELY PREFETCHES:      18222 LATE PREFETCHES: 34534 DROPPED PREFETCHES: 641319
STLB COMMIT LATE PREFETCHES: 0 MISSED OPPORTUNITY: 0 LATE IN PQ: 0 UNCOVERED: 0
STLB COMMIT LATE MSHR PREFETCHES: 0
STLB MPKI TOTAL: 0 MSHR LATE: 0.17267 PQ LATE: 0 COMMIT LATE: 0 MISSED OPPORTUNITY: 0 UNCOVERED: 0
STLB PREFETCHES SAME FILL-ORIGIN LEVEL: 0 DIFFERENT FILL-ORIGIN LEVEL: 0
STLB AVERAGE MISS LATENCY: 155.416 cycles
STLB AVERAGE MISS LATENCY LOAD: -nan cycles
STLB AVERAGE MISS LATENCY PREFETCH: -nan cycles
STLB AVERAGE MSHR OCCUPANCY: 0.0958504
STLB MSHR FULL: 0
STLB RQ	ACCESS:   92251464	FORWARD:          0	MERGED:   76449120	TO_CACHE:   15802344

STLB Hit, L1D data hit: 0
STLB Hit, L2C data hit: 0
STLB Hit, LLC data hit: 0
STLB Hit, LLC data miss: 0
STLB STLB hints to L2: 0
L0D SPEC fills:    9510546  NON-SPEC fills:          0
L0D TimeGuard Request with older TS:       6048 Restricted eviction:         51 read:       1060
L0D Test counter :          0
L0D Leapfrog:          0
L0D MSHR merge:    2157567
L0D TOTAL     ACCESS:   28009281  HIT:    1954384  MISS:   26054897  HIT %:    6.97763  MISS %:    93.0224   MPKI: 130.274
L0D LOAD      TOTAL       ACCESS:   28009281  HIT:    1954384  MISS:   26054897  HIT %:    6.97763  MISS %:    93.0224   MPKI: 130.274
L0D LOAD      NON_SPEC    ACCESS:   16577390  HIT:      33089  MISS:   16544301  HIT %:   0.199603  MISS %:    99.8004   MPKI: 82.7215
L0D LOAD      SPEC        ACCESS:   11431891  HIT:    1921295  MISS:    9510596  HIT %:    16.8064  MISS %:    83.1936   MPKI: 47.553
L0D PREFETCH  REQUESTED:          0  ISSUED:          0  USEFUL:          0  USELESS:          0
L0D USEFUL LOAD PREFETCHES:          0 PREFETCH ISSUED TO LOWER LEVEL:          0  ACCURACY: -nan
L0D TIMELY PREFETCHES:          0 LATE PREFETCHES: 0 DROPPED PREFETCHES: 0
L0D COMMIT LATE PREFETCHES: 0 MISSED OPPORTUNITY: 0 LATE IN PQ: 0 UNCOVERED: 0
L0D COMMIT LATE MSHR PREFETCHES: 0
L0D MPKI TOTAL: 141.062 MSHR LATE: 0 PQ LATE: 0 COMMIT LATE: 0 MISSED OPPORTUNITY: 0 UNCOVERED: 0
L0D PREFETCHES SAME FILL-ORIGIN LEVEL: 0 DIFFERENT FILL-ORIGIN LEVEL: 0
L0D AVERAGE MISS LATENCY: 5.61375 cycles
L0D AVERAGE MISS LATENCY LOAD: 5.61375 cycles
L0D AVERAGE MISS LATENCY PREFETCH: -nan cycles
L0D AVERAGE MSHR OCCUPANCY: 0.262125
L0D MSHR FULL: 0
L0D RQ	ACCESS:   35804801	FORWARD:          0	MERGED:    5637953	TO_CACHE:   30166848
L0D WQ	ACCESS:    3375822	FORWARD:          0	MERGED:          0	TO_CACHE:    3375822

L1D SPEC fills:          0  NON-SPEC fills:      29784
L1D Test counter :      86905
L1D Leapfrog:          0
L1D MSHR merge:      99446
L1D TOTAL     ACCESS:  108051690  HIT:  104081062  MISS:    3970628  HIT %:    96.3253  MISS %:    3.67475   MPKI: 19.8531
L1D LOAD      TOTAL       ACCESS:   26054896  HIT:   25931858  MISS:     123038  HIT %:    99.5278  MISS %:   0.472226   MPKI: 0.61519
L1D LOAD      NON_SPEC    ACCESS:   16544300  HIT:   16514516  MISS:      29784  HIT %:      99.82  MISS %:   0.180026   MPKI: 0.14892
L1D LOAD      SPEC        ACCESS:    9510596  HIT:    9417342  MISS:      93254  HIT %:    99.0195  MISS %:   0.980527   MPKI: 0.46627
L1D RFO       NON_SPEC    ACCESS:    3375823  HIT:    3375821  MISS:          2  HIT %:    99.9999  MISS %: 5.92448e-05   MPKI: 1e-05
L1D PREFETCH  NON_SPEC    ACCESS:   78294989  HIT:   74504271  MISS:    3790718  HIT %:    95.1584  MISS %:    4.84158   MPKI: 18.9536
L1D COMMIT LOAD NON_SPEC    ACCESS:     221847  HIT:     221846  MISS:          1  HIT %:    99.9995  MISS %: 0.000450761   MPKI: 5e-06
L1D COMMIT WRITE NON_SPEC    ACCESS:     104135  HIT:      47266  MISS:      56869  HIT %:    45.3892  MISS %:    54.6108   MPKI: 0.284345
L1D PREFETCH  REQUESTED:  248850680  ISSUED:  197656217  USEFUL:    3784141  USELESS:       6550
L1D USEFUL LOAD PREFETCHES:    3784141 PREFETCH ISSUED TO LOWER LEVEL:    6862749  ACCURACY: 55.1403
L1D TIMELY PREFETCHES:    3784141 LATE PREFETCHES: 99445 DROPPED PREFETCHES: 2129211
L1D COMMIT LATE PREFETCHES: 0 MISSED OPPORTUNITY: 0 LATE IN PQ: 0 UNCOVERED: 0
L1D COMMIT LATE MSHR PREFETCHES: 0
L1D MPKI TOTAL: 0.615195 MSHR LATE: 0.497225 PQ LATE: 0 COMMIT LATE: 0 MISSED OPPORTUNITY: 0 UNCOVERED: 0
L1D PREFETCHES SAME FILL-ORIGIN LEVEL: 3890169 DIFFERENT FILL-ORIGIN LEVEL: 2972580
L1D AVERAGE MISS LATENCY: 158.505 cycles
L1D AVERAGE MISS LATENCY LOAD: 129.246 cycles
L1D AVERAGE MISS LATENCY PREFETCH: 161.833 cycles
L1D AVERAGE MSHR OCCUPANCY: 2.62076
L1D MSHR FULL: 1.42712e-05
L1D RQ	ACCESS:   26629793	FORWARD:          0	MERGED:     353048	TO_CACHE:   26276745
L1D WQ	ACCESS:    3479958	FORWARD:          0	MERGED:          0	TO_CACHE:    3479958
L1D PQ	ACCESS:  197656217	FORWARD:          0	MERGED:  105465408	TO_CACHE:   92190809

L1D UNIQUE REGIONS ACCESSED: 0
L1D REGIONS CONFLICTS: 0
L1D Cross Page Prefetch Requests: 15283495
L1D Same Page Prefetch Requests: 203915092
L1D ROI Sum of L1D PQ occupancy: 1850497702
L1D PREFETCHES PUSHED FROM L2C: 0
L1I SPEC fills:          0  NON-SPEC fills:          0
L1I Test counter :          0
L1I Leapfrog:          0
L1I MSHR merge:          1
L1I TOTAL     ACCESS:   34848482  HIT:   34848475  MISS:          7  HIT %:        100  MISS %: 2.0087e-05   MPKI: 3.5e-05
L1I LOAD      TOTAL       ACCESS:   34848482  HIT:   34848475  MISS:          7  HIT %:        100  MISS %: 2.0087e-05   MPKI: 3.5e-05
L1I LOAD      NON_SPEC    ACCESS:   34848482  HIT:   34848475  MISS:          7  HIT %:        100  MISS %: 2.0087e-05   MPKI: 3.5e-05
L1I PREFETCH  REQUESTED:          0  ISSUED:          0  USEFUL:          0  USELESS:          0
L1I USEFUL LOAD PREFETCHES:          0 PREFETCH ISSUED TO LOWER LEVEL:          0  ACCURACY: -nan
L1I TIMELY PREFETCHES:          0 LATE PREFETCHES: 0 DROPPED PREFETCHES: 0
L1I COMMIT LATE PREFETCHES: 0 MISSED OPPORTUNITY: 0 LATE IN PQ: 0 UNCOVERED: 0
L1I COMMIT LATE MSHR PREFETCHES: 0
L1I MPKI TOTAL: 4e-05 MSHR LATE: 0 PQ LATE: 0 COMMIT LATE: 0 MISSED OPPORTUNITY: 0 UNCOVERED: 0
L1I PREFETCHES SAME FILL-ORIGIN LEVEL: 0 DIFFERENT FILL-ORIGIN LEVEL: 0
L1I AVERAGE MISS LATENCY: 214.143 cycles
L1I AVERAGE MISS LATENCY LOAD: 214.143 cycles
L1I AVERAGE MISS LATENCY PREFETCH: -nan cycles
L1I AVERAGE MSHR OCCUPANCY: 1.43478e-07
L1I MSHR FULL: 0
L1I RQ	ACCESS:   43871097	FORWARD:          0	MERGED:    9022614	TO_CACHE:   34848483

BTB SPEC fills:          0  NON-SPEC fills:          0
BTB Test counter :          0
BTB Leapfrog:          0
BTB MSHR merge:          0
BTB TOTAL     ACCESS:   30088182  HIT:   30088171  MISS:         11  HIT %:        100  MISS %: 3.65592e-05   MPKI: 5.5e-05
BTB BRANCH_DIRECT_JUMP	ACCESS:    1387292  HIT:    1387290  MISS:          2
BTB BRANCH_INDIRECT	ACCESS:          0  HIT:          0  MISS:          0
BTB BRANCH_CONDITIONAL	ACCESS:   28700890  HIT:   28700881  MISS:          9
BTB BRANCH_DIRECT_CALL	ACCESS:          0  HIT:          0  MISS:          0
BTB BRANCH_INDIRECT_CALL	ACCESS:          0  HIT:          0  MISS:          0
BTB BRANCH_RETURN	ACCESS:          0  HIT:          0  MISS:          0
BTB BRANCH_OTHER ACCESS:          0  HIT:          0  MISS:          0

L2C SPEC fills:          0  NON-SPEC fills:       2560
L2C Test counter :      94402
L2C Leapfrog:          0
L2C MSHR merge:       1052
L2C TOTAL     ACCESS:    9220817  HIT:    5341822  MISS:    3878995  HIT %:    57.9322  MISS %:    42.0678   MPKI: 19.395
L2C LOAD      TOTAL       ACCESS:      23597  HIT:      11829  MISS:      11768  HIT %:    50.1293  MISS %:    49.8707   MPKI: 0.05884
L2C LOAD      NON_SPEC    ACCESS:       6443  HIT:       3876  MISS:       2567  HIT %:    60.1583  MISS %:    39.8417   MPKI: 0.012835
L2C LOAD      SPEC        ACCESS:      17154  HIT:       7953  MISS:       9201  HIT %:    46.3624  MISS %:    53.6376   MPKI: 0.046005
L2C RFO       NON_SPEC    ACCESS:          2  HIT:          0  MISS:          2  HIT %:          0  MISS %:        100   MPKI: 1e-05
L2C PREFETCH  NON_SPEC    ACCESS:    5430971  HIT:    1578385  MISS:    3852586  HIT %:    29.0627  MISS %:    70.9373   MPKI: 19.2629
L2C WRITEBACK NON_SPEC    ACCESS:          2  HIT:          1  MISS:          1  HIT %:         50  MISS %:         50   MPKI: 5e-06
L2C CLEAN_EVICTION NON_SPEC    ACCESS:      86905  HIT:      79831  MISS:       7074  HIT %:    91.8601  MISS %:    8.13992   MPKI: 0.03537
L2C COMMIT LOAD NON_SPEC    ACCESS:          1  HIT:          0  MISS:          1  HIT %:          0  MISS %:        100   MPKI: 5e-06
L2C LOAD TRANSLATION NON_SPEC    ACCESS:     210394  HIT:     210382  MISS:         12  HIT %:    99.9943  MISS %: 0.00570358   MPKI: 6e-05
L2C TRANSLATION FROM L1D PREFETCHER NON_SPEC    ACCESS:    3468945  HIT:    3461394  MISS:       7551  HIT %:    99.7823  MISS %:   0.217674   MPKI: 0.037755
L2C PREFETCH  REQUESTED:          0  ISSUED:          0  USEFUL:      13808  USELESS:    3838170
L2C USEFUL LOAD PREFETCHES:      13808 PREFETCH ISSUED TO LOWER LEVEL:    3853644  ACCURACY: 0.35831
L2C TIMELY PREFETCHES:      13808 LATE PREFETCHES: 1052 DROPPED PREFETCHES: 0
L2C COMMIT LATE PREFETCHES: 0 MISSED OPPORTUNITY: 0 LATE IN PQ: 0 UNCOVERED: 0
L2C COMMIT LATE MSHR PREFETCHES: 0
L2C MPKI TOTAL: 0.05884 MSHR LATE: 0.00526 PQ LATE: 0 COMMIT LATE: 0 MISSED OPPORTUNITY: 0 UNCOVERED: 0
L2C PREFETCHES SAME FILL-ORIGIN LEVEL: 523542 DIFFERENT FILL-ORIGIN LEVEL: 0
L2C AVERAGE MISS LATENCY: 165.335 cycles
L2C AVERAGE MISS LATENCY LOAD: 140.437 cycles
L2C AVERAGE MISS LATENCY PREFETCH: 165.628 cycles
L2C AVERAGE MSHR OCCUPANCY: 0.649406
L2C MSHR FULL: 0
L2C RQ	ACCESS:    3702942	FORWARD:          0	MERGED:          0	TO_CACHE:    3702939
L2C WQ	ACCESS:      86907	FORWARD:          3	MERGED:          0	TO_CACHE:      86907
L2C PQ	ACCESS:    6862749	FORWARD:          0	MERGED:        104	TO_CACHE:    6862645

L2C Instructions Evicting Data 7
L2C Translations Evicting Data 7563
L2C Data Evicting Data 3847598
L2C Instructions Evicting Instructions 0
L2C Translations Evicting Instructions 0
L2C Data Evicting Instructions 7
L2C Instructions Evicting Translations 0
L2C Translations Evicting Translations 0
L2C Data Evicting Translations 7544
L2C Dense regions hint from L2: 0
PSCL5 SPEC fills:          0  NON-SPEC fills:          0
PSCL5 Test counter :          0
PSCL5 Leapfrog:          0
PSCL5 MSHR merge:          0
PSCL5 TOTAL     ACCESS:          0  HIT:          0  MISS:          0  HIT %:       -nan  MISS %:       -nan   MPKI: 0
PSCL5 PREFETCH  REQUESTED:          0  ISSUED:          0  USEFUL:          0  USELESS:          0
PSCL5 USEFUL LOAD PREFETCHES:          0 PREFETCH ISSUED TO LOWER LEVEL:          0  ACCURACY: -nan
PSCL5 TIMELY PREFETCHES:          0 LATE PREFETCHES: 0 DROPPED PREFETCHES: 0
PSCL5 COMMIT LATE PREFETCHES: 0 MISSED OPPORTUNITY: 0 LATE IN PQ: 0 UNCOVERED: 0
PSCL5 COMMIT LATE MSHR PREFETCHES: 0
PSCL5 MPKI TOTAL: 0 MSHR LATE: 0 PQ LATE: 0 COMMIT LATE: 0 MISSED OPPORTUNITY: 0 UNCOVERED: 0
PSCL5 PREFETCHES SAME FILL-ORIGIN LEVEL: 0 DIFFERENT FILL-ORIGIN LEVEL: 0

PSCL4 SPEC fills:          0  NON-SPEC fills:          0
PSCL4 Test counter :          0
PSCL4 Leapfrog:          0
PSCL4 MSHR merge:          0
PSCL4 TOTAL     ACCESS:          0  HIT:          0  MISS:          0  HIT %:       -nan  MISS %:       -nan   MPKI: 0
PSCL4 PREFETCH  REQUESTED:          0  ISSUED:          0  USEFUL:          0  USELESS:          0
PSCL4 USEFUL LOAD PREFETCHES:          0 PREFETCH ISSUED TO LOWER LEVEL:          0  ACCURACY: -nan
PSCL4 TIMELY PREFETCHES:          0 LATE PREFETCHES: 0 DROPPED PREFETCHES: 0
PSCL4 COMMIT LATE PREFETCHES: 0 MISSED OPPORTUNITY: 0 LATE IN PQ: 0 UNCOVERED: 0
PSCL4 COMMIT LATE MSHR PREFETCHES: 0
PSCL4 MPKI TOTAL: 0 MSHR LATE: 0 PQ LATE: 0 COMMIT LATE: 0 MISSED OPPORTUNITY: 0 UNCOVERED: 0
PSCL4 PREFETCHES SAME FILL-ORIGIN LEVEL: 0 DIFFERENT FILL-ORIGIN LEVEL: 0

PSCL3 SPEC fills:          0  NON-SPEC fills:          0
PSCL3 Test counter :          0
PSCL3 Leapfrog:          0
PSCL3 MSHR merge:          0
PSCL3 TOTAL     ACCESS:          0  HIT:          0  MISS:          0  HIT %:       -nan  MISS %:       -nan   MPKI: 0
PSCL3 PREFETCH  REQUESTED:          0  ISSUED:          0  USEFUL:          0  USELESS:          0
PSCL3 USEFUL LOAD PREFETCHES:          0 PREFETCH ISSUED TO LOWER LEVEL:          0  ACCURACY: -nan
PSCL3 TIMELY PREFETCHES:          0 LATE PREFETCHES: 0 DROPPED PREFETCHES: 0
PSCL3 COMMIT LATE PREFETCHES: 0 MISSED OPPORTUNITY: 0 LATE IN PQ: 0 UNCOVERED: 0
PSCL3 COMMIT LATE MSHR PREFETCHES: 0
PSCL3 MPKI TOTAL: 0 MSHR LATE: 0 PQ LATE: 0 COMMIT LATE: 0 MISSED OPPORTUNITY: 0 UNCOVERED: 0
PSCL3 PREFETCHES SAME FILL-ORIGIN LEVEL: 0 DIFFERENT FILL-ORIGIN LEVEL: 0

PSCL2 SPEC fills:          0  NON-SPEC fills:          0
PSCL2 Test counter :          0
PSCL2 Leapfrog:          0
PSCL2 MSHR merge:          0
PSCL2 TOTAL     ACCESS:          0  HIT:          0  MISS:          0  HIT %:       -nan  MISS %:       -nan   MPKI: 0
PSCL2 PREFETCH  REQUESTED:          0  ISSUED:          0  USEFUL:          0  USELESS:          0
PSCL2 USEFUL LOAD PREFETCHES:          0 PREFETCH ISSUED TO LOWER LEVEL:          0  ACCURACY: -nan
PSCL2 TIMELY PREFETCHES:          0 LATE PREFETCHES: 0 DROPPED PREFETCHES: 0
PSCL2 COMMIT LATE PREFETCHES: 0 MISSED OPPORTUNITY: 0 LATE IN PQ: 0 UNCOVERED: 0
PSCL2 COMMIT LATE MSHR PREFETCHES: 0
PSCL2 MPKI TOTAL: 0 MSHR LATE: 0 PQ LATE: 0 COMMIT LATE: 0 MISSED OPPORTUNITY: 0 UNCOVERED: 0
PSCL2 PREFETCHES SAME FILL-ORIGIN LEVEL: 0 DIFFERENT FILL-ORIGIN LEVEL: 0

LLC SPEC fills:          0  NON-SPEC fills:       1867
LLC Test counter :     123782
LLC Leapfrog:          0
LLC MSHR merge:          0
LLC TOTAL     ACCESS:    3966324  HIT:      82588  MISS:    3883736  HIT %:    2.08223  MISS %:    97.9178   MPKI: 19.4187
LLC LOAD      TOTAL       ACCESS:      10716  HIT:       1257  MISS:       9459  HIT %:    11.7301  MISS %:    88.2699   MPKI: 0.047295
LLC LOAD      NON_SPEC    ACCESS:       2189  HIT:        315  MISS:       1874  HIT %:    14.3901  MISS %:    85.6099   MPKI: 0.00937
LLC LOAD      SPEC        ACCESS:       8527  HIT:        942  MISS:       7585  HIT %:    11.0473  MISS %:    88.9527   MPKI: 0.037925
LLC RFO       NON_SPEC    ACCESS:          2  HIT:          0  MISS:          2  HIT %:          0  MISS %:        100   MPKI: 1e-05
LLC PREFETCH  NON_SPEC    ACCESS:    3853638  HIT:        117  MISS:    3853521  HIT %: 0.00303609  MISS %:     99.997   MPKI: 19.2676
LLC WRITEBACK NON_SPEC    ACCESS:          2  HIT:          1  MISS:          1  HIT %:         50  MISS %:         50   MPKI: 5e-06
LLC CLEAN_EVICTION NON_SPEC    ACCESS:      94402  HIT:      81213  MISS:      13189  HIT %:    86.0289  MISS %:    13.9711   MPKI: 0.065945
LLC COMMIT LOAD NON_SPEC    ACCESS:          1  HIT:          0  MISS:          1  HIT %:          0  MISS %:        100   MPKI: 5e-06
LLC LOAD TRANSLATION NON_SPEC    ACCESS:         12  HIT:          0  MISS:         12  HIT %:          0  MISS %:        100   MPKI: 6e-05
LLC TRANSLATION FROM L1D PREFETCHER NON_SPEC    ACCESS:       7551  HIT:          0  MISS:       7551  HIT %:          0  MISS %:        100   MPKI: 0.037755
LLC PREFETCH  REQUESTED:          0  ISSUED:          0  USEFUL:         10  USELESS:    3828340
LLC USEFUL LOAD PREFETCHES:         10 PREFETCH ISSUED TO LOWER LEVEL:    3853525  ACCURACY: 0.000259503
LLC TIMELY PREFETCHES:         10 LATE PREFETCHES: 0 DROPPED PREFETCHES: 0
LLC COMMIT LATE PREFETCHES: 0 MISSED OPPORTUNITY: 0 LATE IN PQ: 0 UNCOVERED: 0
LLC COMMIT LATE MSHR PREFETCHES: 0
LLC MPKI TOTAL: 0.047295 MSHR LATE: 0 PQ LATE: 0 COMMIT LATE: 0 MISSED OPPORTUNITY: 0 UNCOVERED: 0
LLC PREFETCHES SAME FILL-ORIGIN LEVEL: 0 DIFFERENT FILL-ORIGIN LEVEL: 0
LLC AVERAGE MISS LATENCY: 135.25 cycles
LLC AVERAGE MISS LATENCY LOAD: 136.824 cycles
LLC AVERAGE MISS LATENCY PREFETCH: 135.622 cycles
LLC AVERAGE MSHR OCCUPANCY: 1.15852
LLC MSHR FULL: 0
LLC RQ	ACCESS:      18282	FORWARD:          0	MERGED:          0	TO_CACHE:      18282
LLC WQ	ACCESS:      94404	FORWARD:          0	MERGED:          0	TO_CACHE:      94404
LLC PQ	ACCESS:    3853644	FORWARD:          0	MERGED:          0	TO_CACHE:    3853644

LLC Dense regions hint to LLC: 0

RAW hits: 1
Loads Generated: 35804804
Loads sent to L1D: 35804801
Stores Generated: 3375822
Stores sent to L1D: 3375822
Major fault: 0 Minor fault: 62153
Allocated PAGES: 62153
Total Load insts: 43892553
Total Non-spec loads: 16885360
Percentage of speculative loads: 61.5302

LeapFrogging counter: 0
Commit hits: 9508534 miss: 9718805
Commit hit %: 49.4532 miss %: 50.5468
Commits not translated: 0
Loads retired: 123038
Stores retired: 3375822
Cache fills: 123038
L1D response latency: 129.246 cycles
Load retirement latency: 233.08 cycles
OOO test counter: 0
Discarded buffer inserts: 9508534 hits: 1516 hit %: 0.0159436
LATENCY_FILL: 4.0516 37772

DRAM Statistics
 CHANNEL 0
 RQ ROW_BUFFER_HIT:    2217355  ROW_BUFFER_MISS:    1653191
 DBUS_CONGESTED:       7724
 WQ ROW_BUFFER_HIT:      41067  ROW_BUFFER_MISS:      82717  FULL:         31

 AVG_CONGESTED_CYCLE: 4
 All warmup complete: 2
Channel 0 Bank busy for read cycles: 0
Channel 0 Bank busy for write cycles: 0
Channel 0
Rank 0
0banks busy for read cycles: 69990431
0banks busy for write cycles: 32235
1banks busy for read cycles: 74032088
1banks busy for write cycles: 10422096
2banks busy for read cycles: 31788493
2banks busy for write cycles: 14369351
3banks busy for read cycles: 30640408
3banks busy for write cycles: 4778909
4banks busy for read cycles: 18025249
4banks busy for write cycles: 958578
5banks busy for read cycles: 2338502
5banks busy for write cycles: 277707
6banks busy for read cycles: 1728107
6banks busy for write cycles: 76559
7banks busy for read cycles: 1152328
7banks busy for write cycles: 107138
8banks busy for read cycles: 3405336
8banks busy for write cycles: 587428

CPU 0 Branch Prediction Accuracy: 99.8669% MPKI: 0.223155 Average ROB Occupancy at Mispredict: 27.4387
Branch types
NOT_BRANCH: 166478325 83.2392%
BRANCH_DIRECT_JUMP: 1387292 0.693646%
BRANCH_INDIRECT: 0 0%
BRANCH_CONDITIONAL: 32134341 16.0672%
BRANCH_DIRECT_CALL: 0 0%
BRANCH_INDIRECT_CALL: 0 0%
BRANCH_RETURN: 0 0%
BRANCH_OTHER: 0 0%

DRAM PAGES: 1048576
Allocated PAGES: 62153
