
*** ChampSim Multicore Out-of-Order Simulator ***

Warmup Instructions: 50000000
Simulation Instructions: 200000000
Number of CPUs: 1
LLC sets: 2048
LLC ways: 16
L0D sets: 16
L0D ways: 2
ROB size: 352
LQ size: 128
SQ size: 72
Secure Berti: OFF
Berti: OFF
Berti Fill: OFF
On commit prefetching: ON
Hit-based filter: ON
Time-guarding: ON
Free-slotting: ON
Leap-frogging: ON
Train prefetcher on L0D bypass: OFF
No translation penalty for prefetchers: OFF
Prefetch to L0D only: OFF
Prefetch to L1D only: OFF
Clean evictions: ON
Commit loads: ON
Commit write: ON
Fill commit loads to L2C, LLC: ON
DRAM IO FREQUENCY: 6400
ROB SIZE: 352
Off-chip DRAM Size: 4096 MB Channels: 1 Width: 64-bit Data Rate: 6400 MT/s
CPU 0 runs /home/sumon/secure_berti/GhostMinion/../../traces/spec/605.mcf_s-472B.champsimtrace.xz
.xz
BTB has LRU replacement policy
ITLB has LRU replacement policy
DTLB has LRU replacement policy
STLB has LRU replacement policy
L1I has LRU replacement policy
L0D has LRU replacement policy
History Sets: 8
History Ways: 16
BERTI Size: 16
BERTI Stride Size: 16
L1D has LRU replacement policy
L2C has LRU replacement policy
LLC has LRU replacement policy
Heartbeat CPU 0 instructions: 10000001 cycles: 5554857 heartbeat IPC: 1.80023 cumulative IPC: 1.80023 (Simulation time: 0 hr 0 min 48 sec) 
Heartbeat CPU 0 instructions: 20000001 cycles: 10770555 heartbeat IPC: 1.91729 cumulative IPC: 1.85691 (Simulation time: 0 hr 1 min 41 sec) 
Heartbeat CPU 0 instructions: 30000003 cycles: 15848707 heartbeat IPC: 1.96922 cumulative IPC: 1.8929 (Simulation time: 0 hr 2 min 37 sec) 
Heartbeat CPU 0 instructions: 40000001 cycles: 21421379 heartbeat IPC: 1.79447 cumulative IPC: 1.86729 (Simulation time: 0 hr 3 min 25 sec) 
Heartbeat CPU 0 instructions: 50000001 cycles: 26867379 heartbeat IPC: 1.83621 cumulative IPC: 1.86099 (Simulation time: 0 hr 4 min 13 sec) 

Warmup complete CPU 0 instructions: 50000001 cycles: 26867379 (Simulation time: 0 hr 4 min 13 sec) 

Heartbeat CPU 0 instructions: 60000001 cycles: 50336059 heartbeat IPC: 0.4261 cumulative IPC: 0.4261 (Simulation time: 0 hr 5 min 17 sec) 
Heartbeat CPU 0 instructions: 70000003 cycles: 72709115 heartbeat IPC: 0.446966 cumulative IPC: 0.436284 (Simulation time: 0 hr 6 min 18 sec) 
Heartbeat CPU 0 instructions: 80000002 cycles: 100339262 heartbeat IPC: 0.361923 cumulative IPC: 0.408319 (Simulation time: 0 hr 7 min 29 sec) 
Heartbeat CPU 0 instructions: 90000000 cycles: 122299470 heartbeat IPC: 0.455369 cumulative IPC: 0.419146 (Simulation time: 0 hr 8 min 32 sec) 
Heartbeat CPU 0 instructions: 100000002 cycles: 148284266 heartbeat IPC: 0.384841 cumulative IPC: 0.411804 (Simulation time: 0 hr 9 min 42 sec) 
Heartbeat CPU 0 instructions: 110000000 cycles: 170781942 heartbeat IPC: 0.44449 cumulative IPC: 0.416914 (Simulation time: 0 hr 10 min 42 sec) 
Heartbeat CPU 0 instructions: 120000002 cycles: 195845090 heartbeat IPC: 0.398992 cumulative IPC: 0.414256 (Simulation time: 0 hr 11 min 47 sec) 
Heartbeat CPU 0 instructions: 130000002 cycles: 222349825 heartbeat IPC: 0.377291 cumulative IPC: 0.409244 (Simulation time: 0 hr 12 min 55 sec) 
Heartbeat CPU 0 instructions: 140000003 cycles: 247929468 heartbeat IPC: 0.390936 cumulative IPC: 0.407125 (Simulation time: 0 hr 14 min 2 sec) 
Heartbeat CPU 0 instructions: 150000002 cycles: 274137799 heartbeat IPC: 0.381558 cumulative IPC: 0.404416 (Simulation time: 0 hr 15 min 9 sec) 
Heartbeat CPU 0 instructions: 160000003 cycles: 299157837 heartbeat IPC: 0.39968 cumulative IPC: 0.40398 (Simulation time: 0 hr 16 min 12 sec) 
Heartbeat CPU 0 instructions: 170000001 cycles: 322688401 heartbeat IPC: 0.424979 cumulative IPC: 0.405651 (Simulation time: 0 hr 17 min 11 sec) 
Heartbeat CPU 0 instructions: 180000002 cycles: 343415546 heartbeat IPC: 0.482459 cumulative IPC: 0.41068 (Simulation time: 0 hr 18 min 8 sec) 
Heartbeat CPU 0 instructions: 190000000 cycles: 372281323 heartbeat IPC: 0.346431 cumulative IPC: 0.405311 (Simulation time: 0 hr 19 min 16 sec) 
Heartbeat CPU 0 instructions: 200000002 cycles: 395513913 heartbeat IPC: 0.43043 cumulative IPC: 0.406894 (Simulation time: 0 hr 20 min 14 sec) 
Heartbeat CPU 0 instructions: 210000003 cycles: 419606174 heartbeat IPC: 0.415071 cumulative IPC: 0.407395 (Simulation time: 0 hr 21 min 9 sec) 
Heartbeat CPU 0 instructions: 220000000 cycles: 445282257 heartbeat IPC: 0.389467 cumulative IPC: 0.406295 (Simulation time: 0 hr 22 min 10 sec) 
Heartbeat CPU 0 instructions: 230000001 cycles: 469559847 heartbeat IPC: 0.411903 cumulative IPC: 0.406603 (Simulation time: 0 hr 23 min 22 sec) 
Heartbeat CPU 0 instructions: 240000002 cycles: 502074559 heartbeat IPC: 0.307553 cumulative IPC: 0.399826 (Simulation time: 0 hr 24 min 51 sec) 
Heartbeat CPU 0 instructions: 250000000 cycles: 541965886 heartbeat IPC: 0.250681 cumulative IPC: 0.388275 (Simulation time: 0 hr 26 min 31 sec) 
Finished CPU 0 instructions: 200000000 cycles: 515098509 cumulative IPC: 0.388275 (Simulation time: 0 hr 26 min 31 sec) 
 Instruction ID: 250000347

ChampSim completed all CPUs

Region of Interest Statistics

CPU 0 cumulative IPC: 0.388275 instructions: 200000000 cycles: 515098509
ITLB SPEC fills:          0  NON-SPEC fills:          0
ITLB Test counter :          0
ITLB Leapfrog:          0
ITLB MSHR merge:          0
ITLB TOTAL     ACCESS:   34308457  HIT:   34308457  MISS:          0  HIT %:        100  MISS %:          0   MPKI: 0
ITLB LOAD TRANSLATION NON_SPEC    ACCESS:   34308457  HIT:   34308457  MISS:          0  HIT %:        100  MISS %:          0   MPKI: 0
ITLB PREFETCH  REQUESTED:          0  ISSUED:          0  USEFUL:          0  USELESS:          0
ITLB USEFUL LOAD PREFETCHES:          0 PREFETCH ISSUED TO LOWER LEVEL:          0  ACCURACY: -nan
ITLB TIMELY PREFETCHES:          0 LATE PREFETCHES: 0 DROPPED PREFETCHES: 0
ITLB COMMIT LATE PREFETCHES: 0 MISSED OPPORTUNITY: 0 LATE IN PQ: 0 UNCOVERED: 0
ITLB COMMIT LATE MSHR PREFETCHES: 0
ITLB MPKI TOTAL: 0 MSHR LATE: 0 PQ LATE: 0 COMMIT LATE: 0 MISSED OPPORTUNITY: 0 UNCOVERED: 0
ITLB PREFETCHES SAME FILL-ORIGIN LEVEL: 0 DIFFERENT FILL-ORIGIN LEVEL: 0
ITLB AVERAGE MISS LATENCY: -nan cycles
ITLB AVERAGE MISS LATENCY LOAD: -nan cycles
ITLB AVERAGE MISS LATENCY PREFETCH: -nan cycles
ITLB AVERAGE MSHR OCCUPANCY: 0
ITLB MSHR FULL: 0
ITLB RQ	ACCESS:   44321720	FORWARD:          0	MERGED:   10013264	TO_CACHE:   34308456

DTLB SPEC fills:          0  NON-SPEC fills:          0
DTLB Test counter :          0
DTLB Leapfrog:          0
DTLB MSHR merge:          0
DTLB TOTAL     ACCESS:   57257492  HIT:   56542100  MISS:     715392  HIT %:    98.7506  MISS %:    1.24943   MPKI: 3.57696
DTLB LOAD TRANSLATION NON_SPEC    ACCESS:   57257492  HIT:   56542100  MISS:     715392  HIT %:    98.7506  MISS %:    1.24943   MPKI: 3.57696
DTLB PREFETCH  REQUESTED:          0  ISSUED:          0  USEFUL:          0  USELESS:          0
DTLB USEFUL LOAD PREFETCHES:          0 PREFETCH ISSUED TO LOWER LEVEL:          0  ACCURACY: -nan
DTLB TIMELY PREFETCHES:          0 LATE PREFETCHES: 0 DROPPED PREFETCHES: 0
DTLB COMMIT LATE PREFETCHES: 0 MISSED OPPORTUNITY: 0 LATE IN PQ: 0 UNCOVERED: 0
DTLB COMMIT LATE MSHR PREFETCHES: 0
DTLB MPKI TOTAL: 0 MSHR LATE: 0 PQ LATE: 0 COMMIT LATE: 0 MISSED OPPORTUNITY: 0 UNCOVERED: 0
DTLB PREFETCHES SAME FILL-ORIGIN LEVEL: 0 DIFFERENT FILL-ORIGIN LEVEL: 0
DTLB AVERAGE MISS LATENCY: 25.6696 cycles
DTLB AVERAGE MISS LATENCY LOAD: -nan cycles
DTLB AVERAGE MISS LATENCY PREFETCH: -nan cycles
DTLB AVERAGE MSHR OCCUPANCY: 0.0185666
DTLB MSHR FULL: 0
DTLB RQ	ACCESS:   92447297	FORWARD:          0	MERGED:   35073530	TO_CACHE:   57373767

STLB SPEC fills:          0  NON-SPEC fills:          0
STLB Test counter :          0
STLB Leapfrog:          0
STLB MSHR merge:          0
STLB TOTAL     ACCESS:   12143178  HIT:   11883758  MISS:     259420  HIT %:    97.8637  MISS %:    2.13634   MPKI: 1.2971
STLB LOAD TRANSLATION NON_SPEC    ACCESS:     715392  HIT:     651062  MISS:      64330  HIT %:    91.0077  MISS %:    8.99227   MPKI: 0.32165
STLB TRANSLATION FROM L1D PREFETCHER NON_SPEC    ACCESS:   11427786  HIT:   11232696  MISS:     195090  HIT %:    98.2928  MISS %:    1.70715   MPKI: 0.97545
STLB PREFETCH  REQUESTED:          0  ISSUED:          0  USEFUL:     195039  USELESS:         51
STLB USEFUL LOAD PREFETCHES:     195039 PREFETCH ISSUED TO LOWER LEVEL:          0  ACCURACY: inf
STLB TIMELY PREFETCHES:     195039 LATE PREFETCHES: 22285 DROPPED PREFETCHES: 515552
STLB COMMIT LATE PREFETCHES: 0 MISSED OPPORTUNITY: 0 LATE IN PQ: 0 UNCOVERED: 0
STLB COMMIT LATE MSHR PREFETCHES: 0
STLB MPKI TOTAL: 0 MSHR LATE: 0.111425 PQ LATE: 0 COMMIT LATE: 0 MISSED OPPORTUNITY: 0 UNCOVERED: 0
STLB PREFETCHES SAME FILL-ORIGIN LEVEL: 0 DIFFERENT FILL-ORIGIN LEVEL: 0
STLB AVERAGE MISS LATENCY: 127.135 cycles
STLB AVERAGE MISS LATENCY LOAD: -nan cycles
STLB AVERAGE MISS LATENCY PREFETCH: -nan cycles
STLB AVERAGE MSHR OCCUPANCY: 0.261734
STLB MSHR FULL: 3.05832e-05
STLB RQ	ACCESS:   51796126	FORWARD:          0	MERGED:   39011627	TO_CACHE:   12784499

STLB Hit, L1D data hit: 0
STLB Hit, L2C data hit: 0
STLB Hit, LLC data hit: 0
STLB Hit, LLC data miss: 0
STLB STLB hints to L2: 0
L0D SPEC fills:   29939755  NON-SPEC fills:          0
L0D TimeGuard Request with older TS:     961366 Restricted eviction:     315255 read:    1115041
L0D Test counter :          0
L0D Leapfrog:          0
L0D MSHR merge:    2075726
L0D TOTAL     ACCESS:   44123157  HIT:    6539152  MISS:   37584005  HIT %:    14.8202  MISS %:    85.1798   MPKI: 187.92
L0D LOAD      TOTAL       ACCESS:   44123157  HIT:    6539152  MISS:   37584005  HIT %:    14.8202  MISS %:    85.1798   MPKI: 187.92
L0D LOAD      NON_SPEC    ACCESS:    7829657  HIT:     500662  MISS:    7328995  HIT %:    6.39443  MISS %:    93.6056   MPKI: 36.645
L0D LOAD      SPEC        ACCESS:   36293500  HIT:    6038490  MISS:   30255010  HIT %:    16.6379  MISS %:    83.3621   MPKI: 151.275
L0D PREFETCH  REQUESTED:          0  ISSUED:          0  USEFUL:          0  USELESS:          0
L0D USEFUL LOAD PREFETCHES:          0 PREFETCH ISSUED TO LOWER LEVEL:          0  ACCURACY: -nan
L0D TIMELY PREFETCHES:          0 LATE PREFETCHES: 0 DROPPED PREFETCHES: 0
L0D COMMIT LATE PREFETCHES: 0 MISSED OPPORTUNITY: 0 LATE IN PQ: 0 UNCOVERED: 0
L0D COMMIT LATE MSHR PREFETCHES: 0
L0D MPKI TOTAL: 198.299 MSHR LATE: 0 PQ LATE: 0 COMMIT LATE: 0 MISSED OPPORTUNITY: 0 UNCOVERED: 0
L0D PREFETCHES SAME FILL-ORIGIN LEVEL: 0 DIFFERENT FILL-ORIGIN LEVEL: 0
L0D AVERAGE MISS LATENCY: 28.3107 cycles
L0D AVERAGE MISS LATENCY LOAD: 28.3107 cycles
L0D AVERAGE MISS LATENCY PREFETCH: -nan cycles
L0D AVERAGE MSHR OCCUPANCY: 3.26827
L0D MSHR FULL: 0.231762
L0D RQ	ACCESS:   66810071	FORWARD:          0	MERGED:   20611192	TO_CACHE:   46198879
L0D WQ	ACCESS:   46248418	FORWARD:          0	MERGED:          0	TO_CACHE:   46248418

L1D SPEC fills:          0  NON-SPEC fills:     699059
L1D Test counter :    3655277
L1D Leapfrog:          0
L1D MSHR merge:    1414800
L1D TOTAL     ACCESS:  116862121  HIT:   99224011  MISS:   17638110  HIT %:    84.9069  MISS %:    15.0931   MPKI: 88.1906
L1D LOAD      TOTAL       ACCESS:   37581723  HIT:   31621733  MISS:    5959990  HIT %:    84.1413  MISS %:    15.8587   MPKI: 29.7999
L1D LOAD      NON_SPEC    ACCESS:    7328066  HIT:    6629007  MISS:     699059  HIT %:    90.4605  MISS %:    9.53947   MPKI: 3.4953
L1D LOAD      SPEC        ACCESS:   30253657  HIT:   24992726  MISS:    5260931  HIT %:    82.6106  MISS %:    17.3894   MPKI: 26.3047
L1D RFO       NON_SPEC    ACCESS:   45384173  HIT:   45211266  MISS:     172907  HIT %:     99.619  MISS %:   0.380985   MPKI: 0.864535
L1D PREFETCH  NON_SPEC    ACCESS:   27415706  HIT:   20121604  MISS:    7294102  HIT %:    73.3944  MISS %:    26.6056   MPKI: 36.4705
L1D COMMIT LOAD NON_SPEC    ACCESS:    1446443  HIT:    1319571  MISS:     126872  HIT %:    91.2287  MISS %:    8.77131   MPKI: 0.63436
L1D COMMIT WRITE NON_SPEC    ACCESS:    5034076  HIT:     949837  MISS:    4084239  HIT %:    18.8681  MISS %:    81.1319   MPKI: 20.4212
L1D PREFETCH  REQUESTED:  146472500  ISSUED:   68175078  USEFUL:    4788568  USELESS:    2505487
L1D USEFUL LOAD PREFETCHES:    4788568 PREFETCH ISSUED TO LOWER LEVEL:   25144467  ACCURACY: 19.0442
L1D TIMELY PREFETCHES:    4788568 LATE PREFETCHES: 1443731 DROPPED PREFETCHES: 804807
L1D COMMIT LATE PREFETCHES: 0 MISSED OPPORTUNITY: 0 LATE IN PQ: 0 UNCOVERED: 0
L1D COMMIT LATE MSHR PREFETCHES: 0
L1D MPKI TOTAL: 29.8114 MSHR LATE: 7.21866 PQ LATE: 0 COMMIT LATE: 0 MISSED OPPORTUNITY: 0 UNCOVERED: 0
L1D PREFETCHES SAME FILL-ORIGIN LEVEL: 8819369 DIFFERENT FILL-ORIGIN LEVEL: 16325098
L1D AVERAGE MISS LATENCY: 113.176 cycles
L1D AVERAGE MISS LATENCY LOAD: 139.82 cycles
L1D AVERAGE MISS LATENCY PREFETCH: 156.441 cycles
L1D AVERAGE MSHR OCCUPANCY: 5.47537
L1D MSHR FULL: 0.147719
L1D RQ	ACCESS:   39181314	FORWARD:          0	MERGED:     139892	TO_CACHE:   39037883
L1D WQ	ACCESS:   51282495	FORWARD:       3539	MERGED:     594208	TO_CACHE:   50688287
L1D PQ	ACCESS:   68175078	FORWARD:          0	MERGED:   17094344	TO_CACHE:   51080734

L1D UNIQUE REGIONS ACCESSED: 0
L1D REGIONS CONFLICTS: 0
L1D Cross Page Prefetch Requests: 11275993
L1D Same Page Prefetch Requests: 71368036
L1D ROI Sum of L1D PQ occupancy: 1414841846
L1D PREFETCHES PUSHED FROM L2C: 0
L1I SPEC fills:          0  NON-SPEC fills:          0
L1I Test counter :          0
L1I Leapfrog:          0
L1I MSHR merge:          0
L1I TOTAL     ACCESS:   44321720  HIT:   44321714  MISS:          6  HIT %:        100  MISS %: 1.35374e-05   MPKI: 3e-05
L1I LOAD      TOTAL       ACCESS:   44321720  HIT:   44321714  MISS:          6  HIT %:        100  MISS %: 1.35374e-05   MPKI: 3e-05
L1I LOAD      NON_SPEC    ACCESS:   44321720  HIT:   44321714  MISS:          6  HIT %:        100  MISS %: 1.35374e-05   MPKI: 3e-05
L1I PREFETCH  REQUESTED:          0  ISSUED:          0  USEFUL:          0  USELESS:          0
L1I USEFUL LOAD PREFETCHES:          0 PREFETCH ISSUED TO LOWER LEVEL:          0  ACCURACY: -nan
L1I TIMELY PREFETCHES:          0 LATE PREFETCHES: 0 DROPPED PREFETCHES: 0
L1I COMMIT LATE PREFETCHES: 0 MISSED OPPORTUNITY: 0 LATE IN PQ: 0 UNCOVERED: 0
L1I COMMIT LATE MSHR PREFETCHES: 0
L1I MPKI TOTAL: 3e-05 MSHR LATE: 0 PQ LATE: 0 COMMIT LATE: 0 MISSED OPPORTUNITY: 0 UNCOVERED: 0
L1I PREFETCHES SAME FILL-ORIGIN LEVEL: 0 DIFFERENT FILL-ORIGIN LEVEL: 0
L1I AVERAGE MISS LATENCY: 214 cycles
L1I AVERAGE MISS LATENCY LOAD: 214 cycles
L1I AVERAGE MISS LATENCY PREFETCH: -nan cycles
L1I AVERAGE MSHR OCCUPANCY: 4.51246e-08
L1I MSHR FULL: 0
L1I RQ	ACCESS:   58670071	FORWARD:          0	MERGED:   14348351	TO_CACHE:   44321720

BTB SPEC fills:          0  NON-SPEC fills:          0
BTB Test counter :          0
BTB Leapfrog:          0
BTB MSHR merge:          0
BTB TOTAL     ACCESS:   25427282  HIT:   25427243  MISS:         39  HIT %:    99.9998  MISS %: 0.000153379   MPKI: 0.000195
BTB BRANCH_DIRECT_JUMP	ACCESS:    2120382  HIT:    2120376  MISS:          6
BTB BRANCH_INDIRECT	ACCESS:          0  HIT:          0  MISS:          0
BTB BRANCH_CONDITIONAL	ACCESS:   23306419  HIT:   23306391  MISS:         28
BTB BRANCH_DIRECT_CALL	ACCESS:        241  HIT:        238  MISS:          3
BTB BRANCH_INDIRECT_CALL	ACCESS:          0  HIT:          0  MISS:          0
BTB BRANCH_RETURN	ACCESS:        240  HIT:        238  MISS:          2
BTB BRANCH_OTHER ACCESS:          0  HIT:          0  MISS:          0

L2C SPEC fills:          0  NON-SPEC fills:     282650
L2C Test counter :    3552808
L2C Leapfrog:          0
L2C MSHR merge:     886854
L2C TOTAL     ACCESS:   33938767  HIT:   18442267  MISS:   15496500  HIT %:    54.3398  MISS %:    45.6602   MPKI: 77.4825
L2C LOAD      TOTAL       ACCESS:    4546588  HIT:    1937318  MISS:    2609270  HIT %:    42.6104  MISS %:    57.3896   MPKI: 13.0464
L2C LOAD      NON_SPEC    ACCESS:     641593  HIT:     358937  MISS:     282656  HIT %:    55.9447  MISS %:    44.0553   MPKI: 1.41328
L2C LOAD      SPEC        ACCESS:    3904995  HIT:    1578381  MISS:    2326614  HIT %:    40.4195  MISS %:    59.5805   MPKI: 11.6331
L2C RFO       NON_SPEC    ACCESS:     164060  HIT:     109457  MISS:      54603  HIT %:    66.7177  MISS %:    33.2823   MPKI: 0.273015
L2C PREFETCH  NON_SPEC    ACCESS:   20916439  HIT:    9378333  MISS:   11538106  HIT %:    44.8371  MISS %:    55.1629   MPKI: 57.6905
L2C WRITEBACK NON_SPEC    ACCESS:     618362  HIT:     616300  MISS:       2062  HIT %:    99.6665  MISS %:   0.333462   MPKI: 0.01031
L2C CLEAN_EVICTION NON_SPEC    ACCESS:    3655272  HIT:    2435378  MISS:    1219894  HIT %:    66.6265  MISS %:    33.3735   MPKI: 6.09947
L2C COMMIT LOAD NON_SPEC    ACCESS:      95661  HIT:      66154  MISS:      29507  HIT %:    69.1546  MISS %:    30.8454   MPKI: 0.147535
L2C LOAD TRANSLATION NON_SPEC    ACCESS:     281269  HIT:     273199  MISS:       8070  HIT %:    97.1309  MISS %:    2.86914   MPKI: 0.04035
L2C TRANSLATION FROM L1D PREFETCHER NON_SPEC    ACCESS:    3661116  HIT:    3626128  MISS:      34988  HIT %:    99.0443  MISS %:   0.955665   MPKI: 0.17494
L2C PREFETCH  REQUESTED:          0  ISSUED:          0  USEFUL:    1826194  USELESS:    9747754
L2C USEFUL LOAD PREFETCHES:    1826194 PREFETCH ISSUED TO LOWER LEVEL:   12444320  ACCURACY: 14.6749
L2C TIMELY PREFETCHES:    1826194 LATE PREFETCHES: 906216 DROPPED PREFETCHES: 0
L2C COMMIT LATE PREFETCHES: 0 MISSED OPPORTUNITY: 0 LATE IN PQ: 0 UNCOVERED: 0
L2C COMMIT LATE MSHR PREFETCHES: 0
L2C MPKI TOTAL: 13.0464 MSHR LATE: 4.53108 PQ LATE: 0 COMMIT LATE: 0 MISSED OPPORTUNITY: 0 UNCOVERED: 0
L2C PREFETCHES SAME FILL-ORIGIN LEVEL: 7814577 DIFFERENT FILL-ORIGIN LEVEL: 0
L2C AVERAGE MISS LATENCY: 245.382 cycles
L2C AVERAGE MISS LATENCY LOAD: 200.28 cycles
L2C AVERAGE MISS LATENCY PREFETCH: 281.589 cycles
L2C AVERAGE MSHR OCCUPANCY: 10.3971
L2C MSHR FULL: 0.0937322
L2C RQ	ACCESS:    8749633	FORWARD:          0	MERGED:          0	TO_CACHE:    8748698
L2C WQ	ACCESS:    4273639	FORWARD:        939	MERGED:          4	TO_CACHE:    4273635
L2C PQ	ACCESS:   24306033	FORWARD:          0	MERGED:      12856	TO_CACHE:   24293173

L2C Instructions Evicting Data 6
L2C Translations Evicting Data 42995
L2C Data Evicting Data 11865900
L2C Instructions Evicting Instructions 0
L2C Translations Evicting Instructions 0
L2C Data Evicting Instructions 4
L2C Instructions Evicting Translations 0
L2C Translations Evicting Translations 63
L2C Data Evicting Translations 38962
L2C Dense regions hint from L2: 0
PSCL5 SPEC fills:          0  NON-SPEC fills:          0
PSCL5 Test counter :          0
PSCL5 Leapfrog:          0
PSCL5 MSHR merge:          0
PSCL5 TOTAL     ACCESS:          0  HIT:          0  MISS:          0  HIT %:       -nan  MISS %:       -nan   MPKI: 0
PSCL5 PREFETCH  REQUESTED:          0  ISSUED:          0  USEFUL:          0  USELESS:          0
PSCL5 USEFUL LOAD PREFETCHES:          0 PREFETCH ISSUED TO LOWER LEVEL:          0  ACCURACY: -nan
PSCL5 TIMELY PREFETCHES:          0 LATE PREFETCHES: 0 DROPPED PREFETCHES: 0
PSCL5 COMMIT LATE PREFETCHES: 0 MISSED OPPORTUNITY: 0 LATE IN PQ: 0 UNCOVERED: 0
PSCL5 COMMIT LATE MSHR PREFETCHES: 0
PSCL5 MPKI TOTAL: 0 MSHR LATE: 0 PQ LATE: 0 COMMIT LATE: 0 MISSED OPPORTUNITY: 0 UNCOVERED: 0
PSCL5 PREFETCHES SAME FILL-ORIGIN LEVEL: 0 DIFFERENT FILL-ORIGIN LEVEL: 0

PSCL4 SPEC fills:          0  NON-SPEC fills:          0
PSCL4 Test counter :          0
PSCL4 Leapfrog:          0
PSCL4 MSHR merge:          0
PSCL4 TOTAL     ACCESS:          0  HIT:          0  MISS:          0  HIT %:       -nan  MISS %:       -nan   MPKI: 0
PSCL4 PREFETCH  REQUESTED:          0  ISSUED:          0  USEFUL:          0  USELESS:          0
PSCL4 USEFUL LOAD PREFETCHES:          0 PREFETCH ISSUED TO LOWER LEVEL:          0  ACCURACY: -nan
PSCL4 TIMELY PREFETCHES:          0 LATE PREFETCHES: 0 DROPPED PREFETCHES: 0
PSCL4 COMMIT LATE PREFETCHES: 0 MISSED OPPORTUNITY: 0 LATE IN PQ: 0 UNCOVERED: 0
PSCL4 COMMIT LATE MSHR PREFETCHES: 0
PSCL4 MPKI TOTAL: 0 MSHR LATE: 0 PQ LATE: 0 COMMIT LATE: 0 MISSED OPPORTUNITY: 0 UNCOVERED: 0
PSCL4 PREFETCHES SAME FILL-ORIGIN LEVEL: 0 DIFFERENT FILL-ORIGIN LEVEL: 0

PSCL3 SPEC fills:          0  NON-SPEC fills:          0
PSCL3 Test counter :          0
PSCL3 Leapfrog:          0
PSCL3 MSHR merge:          0
PSCL3 TOTAL     ACCESS:          0  HIT:          0  MISS:          0  HIT %:       -nan  MISS %:       -nan   MPKI: 0
PSCL3 PREFETCH  REQUESTED:          0  ISSUED:          0  USEFUL:          0  USELESS:          0
PSCL3 USEFUL LOAD PREFETCHES:          0 PREFETCH ISSUED TO LOWER LEVEL:          0  ACCURACY: -nan
PSCL3 TIMELY PREFETCHES:          0 LATE PREFETCHES: 0 DROPPED PREFETCHES: 0
PSCL3 COMMIT LATE PREFETCHES: 0 MISSED OPPORTUNITY: 0 LATE IN PQ: 0 UNCOVERED: 0
PSCL3 COMMIT LATE MSHR PREFETCHES: 0
PSCL3 MPKI TOTAL: 0 MSHR LATE: 0 PQ LATE: 0 COMMIT LATE: 0 MISSED OPPORTUNITY: 0 UNCOVERED: 0
PSCL3 PREFETCHES SAME FILL-ORIGIN LEVEL: 0 DIFFERENT FILL-ORIGIN LEVEL: 0

PSCL2 SPEC fills:          0  NON-SPEC fills:          0
PSCL2 Test counter :          0
PSCL2 Leapfrog:          0
PSCL2 MSHR merge:          0
PSCL2 TOTAL     ACCESS:          0  HIT:          0  MISS:          0  HIT %:       -nan  MISS %:       -nan   MPKI: 0
PSCL2 PREFETCH  REQUESTED:          0  ISSUED:          0  USEFUL:          0  USELESS:          0
PSCL2 USEFUL LOAD PREFETCHES:          0 PREFETCH ISSUED TO LOWER LEVEL:          0  ACCURACY: -nan
PSCL2 TIMELY PREFETCHES:          0 LATE PREFETCHES: 0 DROPPED PREFETCHES: 0
PSCL2 COMMIT LATE PREFETCHES: 0 MISSED OPPORTUNITY: 0 LATE IN PQ: 0 UNCOVERED: 0
PSCL2 COMMIT LATE MSHR PREFETCHES: 0
PSCL2 MPKI TOTAL: 0 MSHR LATE: 0 PQ LATE: 0 COMMIT LATE: 0 MISSED OPPORTUNITY: 0 UNCOVERED: 0
PSCL2 PREFETCHES SAME FILL-ORIGIN LEVEL: 0 DIFFERENT FILL-ORIGIN LEVEL: 0

LLC SPEC fills:          0  NON-SPEC fills:     242666
LLC Test counter :    3530192
LLC Leapfrog:          0
LLC MSHR merge:          0
LLC TOTAL     ACCESS:   18415824  HIT:    3818789  MISS:   14597035  HIT %:    20.7365  MISS %:    79.2635   MPKI: 72.9852
LLC LOAD      TOTAL       ACCESS:    1722415  HIT:      29303  MISS:    1693112  HIT %:    1.70127  MISS %:    98.2987   MPKI: 8.46556
LLC LOAD      NON_SPEC    ACCESS:     246164  HIT:       3492  MISS:     242672  HIT %:    1.41857  MISS %:    98.5814   MPKI: 1.21336
LLC LOAD      SPEC        ACCESS:    1476251  HIT:      25811  MISS:    1450440  HIT %:    1.74842  MISS %:    98.2516   MPKI: 7.2522
LLC RFO       NON_SPEC    ACCESS:      44344  HIT:        595  MISS:      43749  HIT %:    1.34178  MISS %:    98.6582   MPKI: 0.218745
LLC PREFETCH  NON_SPEC    ACCESS:   12444322  HIT:     477571  MISS:   11966751  HIT %:    3.83766  MISS %:    96.1623   MPKI: 59.8338
LLC WRITEBACK NON_SPEC    ACCESS:     588476  HIT:     586719  MISS:       1757  HIT %:    99.7014  MISS %:   0.298568   MPKI: 0.008785
LLC CLEAN_EVICTION NON_SPEC    ACCESS:    3552805  HIT:    2712746  MISS:     840059  HIT %:     76.355  MISS %:     23.645   MPKI: 4.20029
LLC COMMIT LOAD NON_SPEC    ACCESS:      20404  HIT:       8805  MISS:      11599  HIT %:    43.1533  MISS %:    56.8467   MPKI: 0.057995
LLC LOAD TRANSLATION NON_SPEC    ACCESS:       8070  HIT:       1087  MISS:       6983  HIT %:    13.4696  MISS %:    86.5304   MPKI: 0.034915
LLC TRANSLATION FROM L1D PREFETCHER NON_SPEC    ACCESS:      34988  HIT:       1963  MISS:      33025  HIT %:     5.6105  MISS %:    94.3895   MPKI: 0.165125
LLC PREFETCH  REQUESTED:          0  ISSUED:          0  USEFUL:      26498  USELESS:   11972520
LLC USEFUL LOAD PREFETCHES:      26498 PREFETCH ISSUED TO LOWER LEVEL:   11966750  ACCURACY: 0.22143
LLC TIMELY PREFETCHES:      26498 LATE PREFETCHES: 0 DROPPED PREFETCHES: 0
LLC COMMIT LATE PREFETCHES: 0 MISSED OPPORTUNITY: 0 LATE IN PQ: 0 UNCOVERED: 0
LLC COMMIT LATE MSHR PREFETCHES: 0
LLC MPKI TOTAL: 8.46556 MSHR LATE: 0 PQ LATE: 0 COMMIT LATE: 0 MISSED OPPORTUNITY: 0 UNCOVERED: 0
LLC PREFETCHES SAME FILL-ORIGIN LEVEL: 0 DIFFERENT FILL-ORIGIN LEVEL: 0
LLC AVERAGE MISS LATENCY: 239.264 cycles
LLC AVERAGE MISS LATENCY LOAD: 182.489 cycles
LLC AVERAGE MISS LATENCY PREFETCH: 264.043 cycles
LLC AVERAGE MSHR OCCUPANCY: 7.168
LLC MSHR FULL: 0
LLC RQ	ACCESS:    1830225	FORWARD:          0	MERGED:          0	TO_CACHE:    1830224
LLC WQ	ACCESS:    4141284	FORWARD:          1	MERGED:          0	TO_CACHE:    4141284
LLC PQ	ACCESS:   12444320	FORWARD:          0	MERGED:          0	TO_CACHE:   12444320

LLC Dense regions hint to LLC: 0

RAW hits: 2408381
Loads Generated: 69218453
Loads sent to L1D: 66810071
Stores Generated: 46248413
Stores sent to L1D: 46248418
Major fault: 0 Minor fault: 63874
Allocated PAGES: 63874
Total Load insts: 83608043
Total Non-spec loads: 10458962
Percentage of speculative loads: 87.4905

LeapFrogging counter: 6824822
Commit hits: 29101837 miss: 28744838
Commit hit %: 50.3086 miss %: 49.6914
Commits not translated: 0
Loads retired: 5959982
Stores retired: 46248418
Cache fills: 5959990
L1D response latency: 139.82 cycles
Load retirement latency: 310.618 cycles
OOO test counter: 0
Discarded buffer inserts: 29101837 hits: 17988 hit %: 0.0618105
LATENCY_FILL: 10.1002 4317158

DRAM Statistics
 CHANNEL 0
 RQ ROW_BUFFER_HIT:    8838197  ROW_BUFFER_MISS:    4917016
 DBUS_CONGESTED:       4769
 WQ ROW_BUFFER_HIT:     800562  ROW_BUFFER_MISS:    3316846  FULL:        234

 AVG_CONGESTED_CYCLE: 5
 All warmup complete: 2
Channel 0 Bank busy for read cycles: 0
Channel 0 Bank busy for write cycles: 0
Channel 0
Rank 0
0banks busy for read cycles: 94839346
0banks busy for write cycles: 188425
1banks busy for read cycles: 72213784
1banks busy for write cycles: 25074568
2banks busy for read cycles: 34354302
2banks busy for write cycles: 13562993
3banks busy for read cycles: 22083401
3banks busy for write cycles: 8216540
4banks busy for read cycles: 22110571
4banks busy for write cycles: 5747720
5banks busy for read cycles: 24773188
5banks busy for write cycles: 4789497
6banks busy for read cycles: 29319819
6banks busy for write cycles: 4984403
7banks busy for read cycles: 36227944
7banks busy for write cycles: 10936743
8banks busy for read cycles: 46467418
8banks busy for write cycles: 59207848

CPU 0 Branch Prediction Accuracy: 99.1418% MPKI: 1.10599 Average ROB Occupancy at Mispredict: 160.031
Branch types
NOT_BRANCH: 174224582 87.1123%
BRANCH_DIRECT_JUMP: 2120382 1.06019%
BRANCH_INDIRECT: 0 0%
BRANCH_CONDITIONAL: 23654520 11.8273%
BRANCH_DIRECT_CALL: 241 0.0001205%
BRANCH_INDIRECT_CALL: 0 0%
BRANCH_RETURN: 240 0.00012%
BRANCH_OTHER: 0 0%

DRAM PAGES: 1048576
Allocated PAGES: 63874
