
*** ChampSim Multicore Out-of-Order Simulator ***

Warmup Instructions: 50000000
Simulation Instructions: 200000000
Number of CPUs: 1
LLC sets: 2048
LLC ways: 16
L0D sets: 16
L0D ways: 2
ROB size: 352
LQ size: 128
SQ size: 72
Secure Berti: OFF
Berti: OFF
Berti Fill: OFF
On commit prefetching: ON
Hit-based filter: ON
Time-guarding: ON
Free-slotting: ON
Leap-frogging: ON
Train prefetcher on L0D bypass: OFF
No translation penalty for prefetchers: OFF
Prefetch to L0D only: OFF
Prefetch to L1D only: OFF
Clean evictions: ON
Commit loads: ON
Commit write: ON
Fill commit loads to L2C, LLC: ON
DRAM IO FREQUENCY: 6400
ROB SIZE: 352
Off-chip DRAM Size: 4096 MB Channels: 1 Width: 64-bit Data Rate: 6400 MT/s
CPU 0 runs /home/sumon/secure_berti/GhostMinion/../../traces/spec/605.mcf_s-1536B.champsimtrace.xz
.xz
BTB has LRU replacement policy
ITLB has LRU replacement policy
DTLB has LRU replacement policy
STLB has LRU replacement policy
L1I has LRU replacement policy
L0D has LRU replacement policy
History Sets: 8
History Ways: 16
BERTI Size: 16
BERTI Stride Size: 16
L1D has LRU replacement policy
L2C has LRU replacement policy
LLC has LRU replacement policy
Heartbeat CPU 0 instructions: 10000003 cycles: 4494350 heartbeat IPC: 2.22502 cumulative IPC: 2.22502 (Simulation time: 0 hr 0 min 36 sec) 
Heartbeat CPU 0 instructions: 20000003 cycles: 8961545 heartbeat IPC: 2.23854 cumulative IPC: 2.23176 (Simulation time: 0 hr 1 min 11 sec) 
Heartbeat CPU 0 instructions: 30000001 cycles: 13460850 heartbeat IPC: 2.22256 cumulative IPC: 2.22869 (Simulation time: 0 hr 1 min 46 sec) 
Heartbeat CPU 0 instructions: 40000002 cycles: 17989517 heartbeat IPC: 2.20816 cumulative IPC: 2.22352 (Simulation time: 0 hr 2 min 23 sec) 
Heartbeat CPU 0 instructions: 50000003 cycles: 22569399 heartbeat IPC: 2.18346 cumulative IPC: 2.21539 (Simulation time: 0 hr 3 min 1 sec) 

Warmup complete CPU 0 instructions: 50000003 cycles: 22569399 (Simulation time: 0 hr 3 min 1 sec) 

Heartbeat CPU 0 instructions: 60000003 cycles: 72974899 heartbeat IPC: 0.198391 cumulative IPC: 0.198391 (Simulation time: 0 hr 4 min 10 sec) 
Heartbeat CPU 0 instructions: 70000003 cycles: 123664603 heartbeat IPC: 0.197279 cumulative IPC: 0.197833 (Simulation time: 0 hr 5 min 19 sec) 
Heartbeat CPU 0 instructions: 80000001 cycles: 174104846 heartbeat IPC: 0.198254 cumulative IPC: 0.197973 (Simulation time: 0 hr 6 min 28 sec) 
Heartbeat CPU 0 instructions: 90000000 cycles: 224834437 heartbeat IPC: 0.197124 cumulative IPC: 0.19776 (Simulation time: 0 hr 7 min 36 sec) 
Heartbeat CPU 0 instructions: 100000002 cycles: 275346375 heartbeat IPC: 0.197973 cumulative IPC: 0.197803 (Simulation time: 0 hr 8 min 44 sec) 
Heartbeat CPU 0 instructions: 110000000 cycles: 325879606 heartbeat IPC: 0.19789 cumulative IPC: 0.197817 (Simulation time: 0 hr 9 min 52 sec) 
Heartbeat CPU 0 instructions: 120000000 cycles: 376727867 heartbeat IPC: 0.196664 cumulative IPC: 0.197652 (Simulation time: 0 hr 11 min 1 sec) 
Heartbeat CPU 0 instructions: 130000003 cycles: 427435373 heartbeat IPC: 0.19721 cumulative IPC: 0.197596 (Simulation time: 0 hr 12 min 9 sec) 
Heartbeat CPU 0 instructions: 140000003 cycles: 478340014 heartbeat IPC: 0.196446 cumulative IPC: 0.197468 (Simulation time: 0 hr 13 min 17 sec) 
Heartbeat CPU 0 instructions: 150000001 cycles: 528912106 heartbeat IPC: 0.197737 cumulative IPC: 0.197495 (Simulation time: 0 hr 14 min 23 sec) 
Heartbeat CPU 0 instructions: 160000000 cycles: 579294809 heartbeat IPC: 0.198481 cumulative IPC: 0.197584 (Simulation time: 0 hr 15 min 31 sec) 
Heartbeat CPU 0 instructions: 170000002 cycles: 629582877 heartbeat IPC: 0.198854 cumulative IPC: 0.197689 (Simulation time: 0 hr 16 min 38 sec) 
Heartbeat CPU 0 instructions: 180000001 cycles: 679390845 heartbeat IPC: 0.200771 cumulative IPC: 0.197923 (Simulation time: 0 hr 17 min 44 sec) 
Heartbeat CPU 0 instructions: 190000000 cycles: 728988783 heartbeat IPC: 0.201621 cumulative IPC: 0.198183 (Simulation time: 0 hr 18 min 49 sec) 
Heartbeat CPU 0 instructions: 200000003 cycles: 778400497 heartbeat IPC: 0.202381 cumulative IPC: 0.198457 (Simulation time: 0 hr 19 min 52 sec) 
Heartbeat CPU 0 instructions: 210000000 cycles: 827715878 heartbeat IPC: 0.202776 cumulative IPC: 0.198722 (Simulation time: 0 hr 20 min 54 sec) 
Heartbeat CPU 0 instructions: 220000000 cycles: 876950227 heartbeat IPC: 0.20311 cumulative IPC: 0.198975 (Simulation time: 0 hr 21 min 56 sec) 
Heartbeat CPU 0 instructions: 230000000 cycles: 926364840 heartbeat IPC: 0.202369 cumulative IPC: 0.19916 (Simulation time: 0 hr 23 min 49 sec) 
Heartbeat CPU 0 instructions: 240000002 cycles: 975764172 heartbeat IPC: 0.202432 cumulative IPC: 0.19933 (Simulation time: 0 hr 25 min 0 sec) 
Heartbeat CPU 0 instructions: 250000001 cycles: 1025310037 heartbeat IPC: 0.201833 cumulative IPC: 0.199453 (Simulation time: 0 hr 26 min 12 sec) 
Finished CPU 0 instructions: 200000002 cycles: 1002740639 cumulative IPC: 0.199453 (Simulation time: 0 hr 26 min 12 sec) 
 Instruction ID: 250000381

ChampSim completed all CPUs

Region of Interest Statistics

CPU 0 cumulative IPC: 0.199453 instructions: 200000002 cycles: 1002740639
ITLB SPEC fills:          0  NON-SPEC fills:          0
ITLB Test counter :          0
ITLB Leapfrog:          0
ITLB MSHR merge:          0
ITLB TOTAL     ACCESS:   37691592  HIT:   37691592  MISS:          0  HIT %:        100  MISS %:          0   MPKI: 0
ITLB LOAD TRANSLATION NON_SPEC    ACCESS:   37691592  HIT:   37691592  MISS:          0  HIT %:        100  MISS %:          0   MPKI: 0
ITLB PREFETCH  REQUESTED:          0  ISSUED:          0  USEFUL:          0  USELESS:          0
ITLB USEFUL LOAD PREFETCHES:          0 PREFETCH ISSUED TO LOWER LEVEL:          0  ACCURACY: -nan
ITLB TIMELY PREFETCHES:          0 LATE PREFETCHES: 0 DROPPED PREFETCHES: 0
ITLB COMMIT LATE PREFETCHES: 0 MISSED OPPORTUNITY: 0 LATE IN PQ: 0 UNCOVERED: 0
ITLB COMMIT LATE MSHR PREFETCHES: 0
ITLB MPKI TOTAL: 0 MSHR LATE: 0 PQ LATE: 0 COMMIT LATE: 0 MISSED OPPORTUNITY: 0 UNCOVERED: 0
ITLB PREFETCHES SAME FILL-ORIGIN LEVEL: 0 DIFFERENT FILL-ORIGIN LEVEL: 0
ITLB AVERAGE MISS LATENCY: -nan cycles
ITLB AVERAGE MISS LATENCY LOAD: -nan cycles
ITLB AVERAGE MISS LATENCY PREFETCH: -nan cycles
ITLB AVERAGE MSHR OCCUPANCY: 0
ITLB MSHR FULL: 0
ITLB RQ	ACCESS:   39224049	FORWARD:          0	MERGED:    1532457	TO_CACHE:   37691592

DTLB SPEC fills:          0  NON-SPEC fills:          0
DTLB Test counter :          0
DTLB Leapfrog:          0
DTLB MSHR merge:          0
DTLB TOTAL     ACCESS:   33908516  HIT:   29034177  MISS:    4874339  HIT %:     85.625  MISS %:     14.375   MPKI: 24.3717
DTLB LOAD TRANSLATION NON_SPEC    ACCESS:   33908516  HIT:   29034177  MISS:    4874339  HIT %:     85.625  MISS %:     14.375   MPKI: 24.3717
DTLB PREFETCH  REQUESTED:          0  ISSUED:          0  USEFUL:          0  USELESS:          0
DTLB USEFUL LOAD PREFETCHES:          0 PREFETCH ISSUED TO LOWER LEVEL:          0  ACCURACY: -nan
DTLB TIMELY PREFETCHES:          0 LATE PREFETCHES: 0 DROPPED PREFETCHES: 0
DTLB COMMIT LATE PREFETCHES: 0 MISSED OPPORTUNITY: 0 LATE IN PQ: 0 UNCOVERED: 0
DTLB COMMIT LATE MSHR PREFETCHES: 0
DTLB MPKI TOTAL: 0 MSHR LATE: 0 PQ LATE: 0 COMMIT LATE: 0 MISSED OPPORTUNITY: 0 UNCOVERED: 0
DTLB PREFETCHES SAME FILL-ORIGIN LEVEL: 0 DIFFERENT FILL-ORIGIN LEVEL: 0
DTLB AVERAGE MISS LATENCY: 126.5 cycles
DTLB AVERAGE MISS LATENCY LOAD: -nan cycles
DTLB AVERAGE MISS LATENCY PREFETCH: -nan cycles
DTLB AVERAGE MSHR OCCUPANCY: 0.505079
DTLB MSHR FULL: 0
DTLB RQ	ACCESS:   38892524	FORWARD:          0	MERGED:    4936115	TO_CACHE:   33956409

STLB SPEC fills:          0  NON-SPEC fills:          0
STLB Test counter :          0
STLB Leapfrog:          0
STLB MSHR merge:          0
STLB TOTAL     ACCESS:   10019626  HIT:    5374773  MISS:    4644853  HIT %:    53.6425  MISS %:    46.3575   MPKI: 23.2243
STLB LOAD TRANSLATION NON_SPEC    ACCESS:    4874339  HIT:     267150  MISS:    4607189  HIT %:    5.48074  MISS %:    94.5193   MPKI: 23.0359
STLB TRANSLATION FROM L1D PREFETCHER NON_SPEC    ACCESS:    5145287  HIT:    5107623  MISS:      37664  HIT %:     99.268  MISS %:    0.73201   MPKI: 0.18832
STLB PREFETCH  REQUESTED:          0  ISSUED:          0  USEFUL:      37364  USELESS:        301
STLB USEFUL LOAD PREFETCHES:      37364 PREFETCH ISSUED TO LOWER LEVEL:          0  ACCURACY: inf
STLB TIMELY PREFETCHES:      37364 LATE PREFETCHES: 425 DROPPED PREFETCHES: 92835
STLB COMMIT LATE PREFETCHES: 0 MISSED OPPORTUNITY: 0 LATE IN PQ: 0 UNCOVERED: 0
STLB COMMIT LATE MSHR PREFETCHES: 0
STLB MPKI TOTAL: 0 MSHR LATE: 0.002125 PQ LATE: 0 COMMIT LATE: 0 MISSED OPPORTUNITY: 0 UNCOVERED: 0
STLB PREFETCHES SAME FILL-ORIGIN LEVEL: 0 DIFFERENT FILL-ORIGIN LEVEL: 0
STLB AVERAGE MISS LATENCY: 123.916 cycles
STLB AVERAGE MISS LATENCY LOAD: -nan cycles
STLB AVERAGE MISS LATENCY PREFETCH: -nan cycles
STLB AVERAGE MSHR OCCUPANCY: 0.399896
STLB MSHR FULL: 0
STLB RQ	ACCESS:   10407885	FORWARD:          0	MERGED:     284979	TO_CACHE:   10122906

STLB Hit, L1D data hit: 0
STLB Hit, L2C data hit: 0
STLB Hit, LLC data hit: 0
STLB Hit, LLC data miss: 0
STLB STLB hints to L2: 0
L0D SPEC fills:   19801115  NON-SPEC fills:          0
L0D TimeGuard Request with older TS:     649361 Restricted eviction:      10212 read:    2465429
L0D Test counter :          0
L0D Leapfrog:          0
L0D MSHR merge:     928968
L0D TOTAL     ACCESS:   29095145  HIT:    2081162  MISS:   27013983  HIT %:    7.15295  MISS %:     92.847   MPKI: 135.07
L0D LOAD      TOTAL       ACCESS:   29095145  HIT:    2081162  MISS:   27013983  HIT %:    7.15295  MISS %:     92.847   MPKI: 135.07
L0D LOAD      NON_SPEC    ACCESS:    7600713  HIT:     398057  MISS:    7202656  HIT %:     5.2371  MISS %:    94.7629   MPKI: 36.0133
L0D LOAD      SPEC        ACCESS:   21494432  HIT:    1683105  MISS:   19811327  HIT %:    7.83042  MISS %:    92.1696   MPKI: 99.0566
L0D PREFETCH  REQUESTED:          0  ISSUED:          0  USEFUL:          0  USELESS:          0
L0D USEFUL LOAD PREFETCHES:          0 PREFETCH ISSUED TO LOWER LEVEL:          0  ACCURACY: -nan
L0D TIMELY PREFETCHES:          0 LATE PREFETCHES: 0 DROPPED PREFETCHES: 0
L0D COMMIT LATE PREFETCHES: 0 MISSED OPPORTUNITY: 0 LATE IN PQ: 0 UNCOVERED: 0
L0D COMMIT LATE MSHR PREFETCHES: 0
L0D MPKI TOTAL: 139.715 MSHR LATE: 0 PQ LATE: 0 COMMIT LATE: 0 MISSED OPPORTUNITY: 0 UNCOVERED: 0
L0D PREFETCHES SAME FILL-ORIGIN LEVEL: 0 DIFFERENT FILL-ORIGIN LEVEL: 0
L0D AVERAGE MISS LATENCY: 43.8522 cycles
L0D AVERAGE MISS LATENCY LOAD: 43.8522 cycles
L0D AVERAGE MISS LATENCY PREFETCH: -nan cycles
L0D AVERAGE MSHR OCCUPANCY: 0.911571
L0D MSHR FULL: 0
L0D RQ	ACCESS:   49173307	FORWARD:          0	MERGED:   19149197	TO_CACHE:   30024110
L0D WQ	ACCESS:    8868414	FORWARD:          0	MERGED:          0	TO_CACHE:    8868414

L1D SPEC fills:          0  NON-SPEC fills:    3438689
L1D Test counter :    6124961
L1D Leapfrog:          0
L1D MSHR merge:        826
L1D TOTAL     ACCESS:   50708788  HIT:   32491797  MISS:   18216991  HIT %:    64.0753  MISS %:    35.9247   MPKI: 91.085
L1D LOAD      TOTAL       ACCESS:   27013157  HIT:   16458743  MISS:   10554414  HIT %:    60.9286  MISS %:    39.0714   MPKI: 52.7721
L1D LOAD      NON_SPEC    ACCESS:    7202608  HIT:    3763919  MISS:    3438689  HIT %:    52.2577  MISS %:    47.7423   MPKI: 17.1934
L1D LOAD      SPEC        ACCESS:   19810549  HIT:   12694824  MISS:    7115725  HIT %:    64.0811  MISS %:    35.9189   MPKI: 35.5786
L1D RFO       NON_SPEC    ACCESS:    8867391  HIT:    8313044  MISS:     554347  HIT %:    93.7485  MISS %:    6.25152   MPKI: 2.77173
L1D PREFETCH  NON_SPEC    ACCESS:       1562  HIT:       1099  MISS:        463  HIT %:    70.3585  MISS %:    29.6415   MPKI: 0.002315
L1D COMMIT LOAD NON_SPEC    ACCESS:    7713405  HIT:    7705430  MISS:       7975  HIT %:    99.8966  MISS %:   0.103391   MPKI: 0.039875
L1D COMMIT WRITE NON_SPEC    ACCESS:    7113273  HIT:      13481  MISS:    7099792  HIT %:   0.189519  MISS %:    99.8105   MPKI: 35.499
L1D PREFETCH  REQUESTED:    5626025  ISSUED:    5626011  USEFUL:        301  USELESS:        162
L1D USEFUL LOAD PREFETCHES:        301 PREFETCH ISSUED TO LOWER LEVEL:    5438572  ACCURACY: 0.00553454
L1D TIMELY PREFETCHES:        301 LATE PREFETCHES: 0 DROPPED PREFETCHES: 92836
L1D COMMIT LATE PREFETCHES: 0 MISSED OPPORTUNITY: 0 LATE IN PQ: 0 UNCOVERED: 0
L1D COMMIT LATE MSHR PREFETCHES: 0
L1D MPKI TOTAL: 52.7762 MSHR LATE: 0 PQ LATE: 0 COMMIT LATE: 0 MISSED OPPORTUNITY: 0 UNCOVERED: 0
L1D PREFETCHES SAME FILL-ORIGIN LEVEL: 463 DIFFERENT FILL-ORIGIN LEVEL: 5438109
L1D AVERAGE MISS LATENCY: 58.257 cycles
L1D AVERAGE MISS LATENCY LOAD: 99.0821 cycles
L1D AVERAGE MISS LATENCY PREFETCH: 96.2376 cycles
L1D AVERAGE MSHR OCCUPANCY: 0.722289
L1D MSHR FULL: 0
L1D RQ	ACCESS:   37674388	FORWARD:          0	MERGED:    2946386	TO_CACHE:   34728002
L1D WQ	ACCESS:   15981686	FORWARD:          0	MERGED:          0	TO_CACHE:   15981686
L1D PQ	ACCESS:    5626011	FORWARD:          0	MERGED:      92464	TO_CACHE:    5533547

L1D UNIQUE REGIONS ACCESSED: 0
L1D REGIONS CONFLICTS: 0
L1D Cross Page Prefetch Requests: 824670
L1D Same Page Prefetch Requests: 5775744
L1D ROI Sum of L1D PQ occupancy: 91798242
L1D PREFETCHES PUSHED FROM L2C: 0
L1I SPEC fills:          0  NON-SPEC fills:          0
L1I Test counter :          0
L1I Leapfrog:          0
L1I MSHR merge:          0
L1I TOTAL     ACCESS:   39224047  HIT:   39224047  MISS:          0  HIT %:        100  MISS %:          0   MPKI: 0
L1I LOAD      TOTAL       ACCESS:   39224047  HIT:   39224047  MISS:          0  HIT %:        100  MISS %:          0   MPKI: 0
L1I LOAD      NON_SPEC    ACCESS:   39224047  HIT:   39224047  MISS:          0  HIT %:        100  MISS %:          0   MPKI: 0
L1I PREFETCH  REQUESTED:          0  ISSUED:          0  USEFUL:          0  USELESS:          0
L1I USEFUL LOAD PREFETCHES:          0 PREFETCH ISSUED TO LOWER LEVEL:          0  ACCURACY: -nan
L1I TIMELY PREFETCHES:          0 LATE PREFETCHES: 0 DROPPED PREFETCHES: 0
L1I COMMIT LATE PREFETCHES: 0 MISSED OPPORTUNITY: 0 LATE IN PQ: 0 UNCOVERED: 0
L1I COMMIT LATE MSHR PREFETCHES: 0
L1I MPKI TOTAL: 0 MSHR LATE: 0 PQ LATE: 0 COMMIT LATE: 0 MISSED OPPORTUNITY: 0 UNCOVERED: 0
L1I PREFETCHES SAME FILL-ORIGIN LEVEL: 0 DIFFERENT FILL-ORIGIN LEVEL: 0
L1I AVERAGE MISS LATENCY: -nan cycles
L1I AVERAGE MISS LATENCY LOAD: -nan cycles
L1I AVERAGE MISS LATENCY PREFETCH: -nan cycles
L1I AVERAGE MSHR OCCUPANCY: 0
L1I MSHR FULL: 0
L1I RQ	ACCESS:   60444590	FORWARD:          0	MERGED:   21220541	TO_CACHE:   39224049

BTB SPEC fills:          0  NON-SPEC fills:          0
BTB Test counter :          0
BTB Leapfrog:          0
BTB MSHR merge:          0
BTB TOTAL     ACCESS:   26649158  HIT:   26649150  MISS:          8  HIT %:        100  MISS %: 3.00197e-05   MPKI: 4e-05
BTB BRANCH_DIRECT_JUMP	ACCESS:    4549688  HIT:    4549686  MISS:          2
BTB BRANCH_INDIRECT	ACCESS:          0  HIT:          0  MISS:          0
BTB BRANCH_CONDITIONAL	ACCESS:   13231060  HIT:   13231056  MISS:          4
BTB BRANCH_DIRECT_CALL	ACCESS:    4434205  HIT:    4434204  MISS:          1
BTB BRANCH_INDIRECT_CALL	ACCESS:          0  HIT:          0  MISS:          0
BTB BRANCH_RETURN	ACCESS:    4434205  HIT:    4434204  MISS:          1
BTB BRANCH_OTHER ACCESS:          0  HIT:          0  MISS:          0

L2C SPEC fills:          0  NON-SPEC fills:    1008713
L2C Test counter :    5627023
L2C Leapfrog:          0
L2C MSHR merge:        800
L2C TOTAL     ACCESS:   47082311  HIT:   30800575  MISS:   16281736  HIT %:    65.4186  MISS %:    34.5814   MPKI: 81.4087
L2C LOAD      TOTAL       ACCESS:   10553062  HIT:    4060666  MISS:    6492396  HIT %:    38.4786  MISS %:    61.5214   MPKI: 32.462
L2C LOAD      NON_SPEC    ACCESS:    3438688  HIT:    2429975  MISS:    1008713  HIT %:    70.6658  MISS %:    29.3342   MPKI: 5.04356
L2C LOAD      SPEC        ACCESS:    7114374  HIT:    1630691  MISS:    5483683  HIT %:    22.9211  MISS %:    77.0789   MPKI: 27.4184
L2C RFO       NON_SPEC    ACCESS:     554347  HIT:     328077  MISS:     226270  HIT %:    59.1826  MISS %:    40.8174   MPKI: 1.13135
L2C PREFETCH  NON_SPEC    ACCESS:    5433232  HIT:    4777721  MISS:     655511  HIT %:    87.9352  MISS %:    12.0648   MPKI: 3.27755
L2C WRITEBACK NON_SPEC    ACCESS:     720244  HIT:     720243  MISS:          1  HIT %:    99.9999  MISS %: 0.000138842   MPKI: 5e-06
L2C CLEAN_EVICTION NON_SPEC    ACCESS:    6124961  HIT:     531343  MISS:    5593618  HIT %:    8.67504  MISS %:     91.325   MPKI: 27.9681
L2C COMMIT LOAD NON_SPEC    ACCESS:       7975  HIT:       6008  MISS:       1967  HIT %:    75.3354  MISS %:    24.6646   MPKI: 0.009835
L2C LOAD TRANSLATION NON_SPEC    ACCESS:   23033870  HIT:   19724162  MISS:    3309708  HIT %:    85.6311  MISS %:    14.3689   MPKI: 16.5485
L2C TRANSLATION FROM L1D PREFETCHER NON_SPEC    ACCESS:     654620  HIT:     652355  MISS:       2265  HIT %:     99.654  MISS %:   0.346002   MPKI: 0.011325
L2C PREFETCH  REQUESTED:          0  ISSUED:          0  USEFUL:     149003  USELESS:     509436
L2C USEFUL LOAD PREFETCHES:     149003 PREFETCH ISSUED TO LOWER LEVEL:     656312  ACCURACY: 22.7031
L2C TIMELY PREFETCHES:     149003 LATE PREFETCHES: 801 DROPPED PREFETCHES: 0
L2C COMMIT LATE PREFETCHES: 0 MISSED OPPORTUNITY: 0 LATE IN PQ: 0 UNCOVERED: 0
L2C COMMIT LATE MSHR PREFETCHES: 0
L2C MPKI TOTAL: 32.462 MSHR LATE: 0.004005 PQ LATE: 0 COMMIT LATE: 0 MISSED OPPORTUNITY: 0 UNCOVERED: 0
L2C PREFETCHES SAME FILL-ORIGIN LEVEL: 656161 DIFFERENT FILL-ORIGIN LEVEL: 0
L2C AVERAGE MISS LATENCY: 66.5486 cycles
L2C AVERAGE MISS LATENCY LOAD: 140.827 cycles
L2C AVERAGE MISS LATENCY PREFETCH: 86.4469 cycles
L2C AVERAGE MSHR OCCUPANCY: 0.728404
L2C MSHR FULL: 0
L2C RQ	ACCESS:   34805226	FORWARD:          0	MERGED:          0	TO_CACHE:   34803874
L2C WQ	ACCESS:    6845205	FORWARD:       1352	MERGED:          0	TO_CACHE:    6845205
L2C PQ	ACCESS:    5438572	FORWARD:          0	MERGED:          0	TO_CACHE:    5438572

L2C Instructions Evicting Data 0
L2C Translations Evicting Data 1864154
L2C Data Evicting Data 1328403
L2C Instructions Evicting Instructions 0
L2C Translations Evicting Instructions 0
L2C Data Evicting Instructions 0
L2C Instructions Evicting Translations 0
L2C Translations Evicting Translations 1447819
L2C Data Evicting Translations 564058
L2C Dense regions hint from L2: 0
PSCL5 SPEC fills:          0  NON-SPEC fills:          0
PSCL5 Test counter :          0
PSCL5 Leapfrog:          0
PSCL5 MSHR merge:          0
PSCL5 TOTAL     ACCESS:          0  HIT:          0  MISS:          0  HIT %:       -nan  MISS %:       -nan   MPKI: 0
PSCL5 PREFETCH  REQUESTED:          0  ISSUED:          0  USEFUL:          0  USELESS:          0
PSCL5 USEFUL LOAD PREFETCHES:          0 PREFETCH ISSUED TO LOWER LEVEL:          0  ACCURACY: -nan
PSCL5 TIMELY PREFETCHES:          0 LATE PREFETCHES: 0 DROPPED PREFETCHES: 0
PSCL5 COMMIT LATE PREFETCHES: 0 MISSED OPPORTUNITY: 0 LATE IN PQ: 0 UNCOVERED: 0
PSCL5 COMMIT LATE MSHR PREFETCHES: 0
PSCL5 MPKI TOTAL: 0 MSHR LATE: 0 PQ LATE: 0 COMMIT LATE: 0 MISSED OPPORTUNITY: 0 UNCOVERED: 0
PSCL5 PREFETCHES SAME FILL-ORIGIN LEVEL: 0 DIFFERENT FILL-ORIGIN LEVEL: 0

PSCL4 SPEC fills:          0  NON-SPEC fills:          0
PSCL4 Test counter :          0
PSCL4 Leapfrog:          0
PSCL4 MSHR merge:          0
PSCL4 TOTAL     ACCESS:          0  HIT:          0  MISS:          0  HIT %:       -nan  MISS %:       -nan   MPKI: 0
PSCL4 PREFETCH  REQUESTED:          0  ISSUED:          0  USEFUL:          0  USELESS:          0
PSCL4 USEFUL LOAD PREFETCHES:          0 PREFETCH ISSUED TO LOWER LEVEL:          0  ACCURACY: -nan
PSCL4 TIMELY PREFETCHES:          0 LATE PREFETCHES: 0 DROPPED PREFETCHES: 0
PSCL4 COMMIT LATE PREFETCHES: 0 MISSED OPPORTUNITY: 0 LATE IN PQ: 0 UNCOVERED: 0
PSCL4 COMMIT LATE MSHR PREFETCHES: 0
PSCL4 MPKI TOTAL: 0 MSHR LATE: 0 PQ LATE: 0 COMMIT LATE: 0 MISSED OPPORTUNITY: 0 UNCOVERED: 0
PSCL4 PREFETCHES SAME FILL-ORIGIN LEVEL: 0 DIFFERENT FILL-ORIGIN LEVEL: 0

PSCL3 SPEC fills:          0  NON-SPEC fills:          0
PSCL3 Test counter :          0
PSCL3 Leapfrog:          0
PSCL3 MSHR merge:          0
PSCL3 TOTAL     ACCESS:          0  HIT:          0  MISS:          0  HIT %:       -nan  MISS %:       -nan   MPKI: 0
PSCL3 PREFETCH  REQUESTED:          0  ISSUED:          0  USEFUL:          0  USELESS:          0
PSCL3 USEFUL LOAD PREFETCHES:          0 PREFETCH ISSUED TO LOWER LEVEL:          0  ACCURACY: -nan
PSCL3 TIMELY PREFETCHES:          0 LATE PREFETCHES: 0 DROPPED PREFETCHES: 0
PSCL3 COMMIT LATE PREFETCHES: 0 MISSED OPPORTUNITY: 0 LATE IN PQ: 0 UNCOVERED: 0
PSCL3 COMMIT LATE MSHR PREFETCHES: 0
PSCL3 MPKI TOTAL: 0 MSHR LATE: 0 PQ LATE: 0 COMMIT LATE: 0 MISSED OPPORTUNITY: 0 UNCOVERED: 0
PSCL3 PREFETCHES SAME FILL-ORIGIN LEVEL: 0 DIFFERENT FILL-ORIGIN LEVEL: 0

PSCL2 SPEC fills:          0  NON-SPEC fills:          0
PSCL2 Test counter :          0
PSCL2 Leapfrog:          0
PSCL2 MSHR merge:          0
PSCL2 TOTAL     ACCESS:          0  HIT:          0  MISS:          0  HIT %:       -nan  MISS %:       -nan   MPKI: 0
PSCL2 PREFETCH  REQUESTED:          0  ISSUED:          0  USEFUL:          0  USELESS:          0
PSCL2 USEFUL LOAD PREFETCHES:          0 PREFETCH ISSUED TO LOWER LEVEL:          0  ACCURACY: -nan
PSCL2 TIMELY PREFETCHES:          0 LATE PREFETCHES: 0 DROPPED PREFETCHES: 0
PSCL2 COMMIT LATE PREFETCHES: 0 MISSED OPPORTUNITY: 0 LATE IN PQ: 0 UNCOVERED: 0
PSCL2 COMMIT LATE MSHR PREFETCHES: 0
PSCL2 MPKI TOTAL: 0 MSHR LATE: 0 PQ LATE: 0 COMMIT LATE: 0 MISSED OPPORTUNITY: 0 UNCOVERED: 0
PSCL2 PREFETCHES SAME FILL-ORIGIN LEVEL: 0 DIFFERENT FILL-ORIGIN LEVEL: 0

LLC SPEC fills:          0  NON-SPEC fills:     330891
LLC Test counter :    4790427
LLC Leapfrog:          0
LLC MSHR merge:          0
LLC TOTAL     ACCESS:   16721793  HIT:    6749338  MISS:    9972455  HIT %:    40.3625  MISS %:    59.6375   MPKI: 49.8623
LLC LOAD      TOTAL       ACCESS:    6491549  HIT:    1464588  MISS:    5026961  HIT %:    22.5615  MISS %:    77.4385   MPKI: 25.1348
LLC LOAD      NON_SPEC    ACCESS:    1008245  HIT:     677354  MISS:     330891  HIT %:    67.1815  MISS %:    32.8185   MPKI: 1.65445
LLC LOAD      SPEC        ACCESS:    5483304  HIT:     787234  MISS:    4696070  HIT %:    14.3569  MISS %:    85.6431   MPKI: 23.4803
LLC RFO       NON_SPEC    ACCESS:     226267  HIT:     226264  MISS:          3  HIT %:    99.9987  MISS %: 0.00132587   MPKI: 1.5e-05
LLC PREFETCH  NON_SPEC    ACCESS:     656308  HIT:     455376  MISS:     200932  HIT %:    69.3845  MISS %:    30.6155   MPKI: 1.00466
LLC WRITEBACK NON_SPEC    ACCESS:     406709  HIT:     406709  MISS:          0  HIT %:        100  MISS %:          0   MPKI: 0
LLC CLEAN_EVICTION NON_SPEC    ACCESS:    5627022  HIT:     917778  MISS:    4709244  HIT %:    16.3102  MISS %:    83.6898   MPKI: 23.5462
LLC COMMIT LOAD NON_SPEC    ACCESS:       1965  HIT:       1058  MISS:        907  HIT %:    53.8422  MISS %:    46.1578   MPKI: 0.004535
LLC LOAD TRANSLATION NON_SPEC    ACCESS:    3309708  HIT:    3275599  MISS:      34109  HIT %:    98.9694  MISS %:    1.03057   MPKI: 0.170545
LLC TRANSLATION FROM L1D PREFETCHER NON_SPEC    ACCESS:       2265  HIT:       1966  MISS:        299  HIT %:    86.7991  MISS %:    13.2009   MPKI: 0.001495
LLC PREFETCH  REQUESTED:          0  ISSUED:          0  USEFUL:       7027  USELESS:     193657
LLC USEFUL LOAD PREFETCHES:       7027 PREFETCH ISSUED TO LOWER LEVEL:     200932  ACCURACY: 3.4972
LLC TIMELY PREFETCHES:       7027 LATE PREFETCHES: 0 DROPPED PREFETCHES: 0
LLC COMMIT LATE PREFETCHES: 0 MISSED OPPORTUNITY: 0 LATE IN PQ: 0 UNCOVERED: 0
LLC COMMIT LATE MSHR PREFETCHES: 0
LLC MPKI TOTAL: 25.1348 MSHR LATE: 0 PQ LATE: 0 COMMIT LATE: 0 MISSED OPPORTUNITY: 0 UNCOVERED: 0
LLC PREFETCHES SAME FILL-ORIGIN LEVEL: 0 DIFFERENT FILL-ORIGIN LEVEL: 0
LLC AVERAGE MISS LATENCY: 81.3545 cycles
LLC AVERAGE MISS LATENCY LOAD: 152.781 cycles
LLC AVERAGE MISS LATENCY PREFETCH: 183.913 cycles
LLC AVERAGE MSHR OCCUPANCY: 0.710045
LLC MSHR FULL: 0
LLC RQ	ACCESS:   10031804	FORWARD:          0	MERGED:          0	TO_CACHE:   10031753
LLC WQ	ACCESS:    6033732	FORWARD:         55	MERGED:          0	TO_CACHE:    6033732
LLC PQ	ACCESS:     656312	FORWARD:          0	MERGED:          0	TO_CACHE:     656308

LLC Dense regions hint to LLC: 0

RAW hits: 4035413
Loads Generated: 53208720
Loads sent to L1D: 49173307
Stores Generated: 8868414
Stores sent to L1D: 8868414
Major fault: 0 Minor fault: 101164
Allocated PAGES: 101164
Total Load insts: 61413729
Total Non-spec loads: 9071085
Percentage of speculative loads: 85.2296

LeapFrogging counter: 0
Commit hits: 19416613 miss: 22058556
Commit hit %: 46.815 miss %: 53.185
Commits not translated: 0
Loads retired: 10554413
Stores retired: 8868414
Cache fills: 10554414
L1D response latency: 99.0821 cycles
Load retirement latency: 231.652 cycles
OOO test counter: 0
Discarded buffer inserts: 19416613 hits: 10628 hit %: 0.0547366
LATENCY_FILL: 6.09318 7654380

DRAM Statistics
 CHANNEL 0
 RQ ROW_BUFFER_HIT:      19043  ROW_BUFFER_MISS:    5244166
 DBUS_CONGESTED:         89
 WQ ROW_BUFFER_HIT:    1362519  ROW_BUFFER_MISS:    3623787  FULL:          0

 AVG_CONGESTED_CYCLE: 5
 All warmup complete: 2
Channel 0 Bank busy for read cycles: 0
Channel 0 Bank busy for write cycles: 0
Channel 0
Rank 0
0banks busy for read cycles: 61531716
0banks busy for write cycles: 588754
1banks busy for read cycles: 393963201
1banks busy for write cycles: 101857433
2banks busy for read cycles: 141429301
2banks busy for write cycles: 87977269
3banks busy for read cycles: 33556217
3banks busy for write cycles: 66528138
4banks busy for read cycles: 2307284
4banks busy for write cycles: 48070504
5banks busy for read cycles: 167349
5banks busy for write cycles: 30924701
6banks busy for read cycles: 44600
6banks busy for write cycles: 17667881
7banks busy for read cycles: 9841
7banks busy for write cycles: 9698981
8banks busy for read cycles: 2679
8banks busy for write cycles: 6414791

CPU 0 Branch Prediction Accuracy: 99.988% MPKI: 0.01864 Average ROB Occupancy at Mispredict: 326.921
Branch types
NOT_BRANCH: 168845084 84.4225%
BRANCH_DIRECT_JUMP: 4549688 2.27484%
BRANCH_INDIRECT: 0 0%
BRANCH_CONDITIONAL: 17736819 8.86841%
BRANCH_DIRECT_CALL: 4434205 2.2171%
BRANCH_INDIRECT_CALL: 0 0%
BRANCH_RETURN: 4434205 2.2171%
BRANCH_OTHER: 0 0%

DRAM PAGES: 1048576
Allocated PAGES: 101164
