
*** ChampSim Multicore Out-of-Order Simulator ***

Warmup Instructions: 50000000
Simulation Instructions: 200000000
Number of CPUs: 1
LLC sets: 2048
LLC ways: 16
L0D sets: 16
L0D ways: 2
ROB size: 352
LQ size: 128
SQ size: 72
Secure Berti: OFF
Berti: OFF
Berti Fill: OFF
On commit prefetching: ON
Hit-based filter: ON
Time-guarding: ON
Free-slotting: ON
Leap-frogging: ON
Train prefetcher on L0D bypass: OFF
No translation penalty for prefetchers: OFF
Prefetch to L0D only: OFF
Prefetch to L1D only: OFF
Clean evictions: ON
Commit loads: ON
Commit write: ON
Fill commit loads to L2C, LLC: ON
DRAM IO FREQUENCY: 6400
ROB SIZE: 352
Off-chip DRAM Size: 4096 MB Channels: 1 Width: 64-bit Data Rate: 6400 MT/s
CPU 0 runs /home/sumon/secure_berti/GhostMinion/../../traces/spec/605.mcf_s-994B.champsimtrace.xz
.xz
BTB has LRU replacement policy
ITLB has LRU replacement policy
DTLB has LRU replacement policy
STLB has LRU replacement policy
L1I has LRU replacement policy
L0D has LRU replacement policy
History Sets: 8
History Ways: 16
BERTI Size: 16
BERTI Stride Size: 16
L1D has LRU replacement policy
L2C has LRU replacement policy
LLC has LRU replacement policy
Heartbeat CPU 0 instructions: 10000000 cycles: 6138144 heartbeat IPC: 1.62916 cumulative IPC: 1.62916 (Simulation time: 0 hr 0 min 46 sec) 
Heartbeat CPU 0 instructions: 20000000 cycles: 12443760 heartbeat IPC: 1.58589 cumulative IPC: 1.60723 (Simulation time: 0 hr 1 min 33 sec) 
Heartbeat CPU 0 instructions: 30000003 cycles: 18679280 heartbeat IPC: 1.60372 cumulative IPC: 1.60606 (Simulation time: 0 hr 2 min 20 sec) 
Heartbeat CPU 0 instructions: 40000002 cycles: 24876728 heartbeat IPC: 1.61357 cumulative IPC: 1.60793 (Simulation time: 0 hr 3 min 6 sec) 
Heartbeat CPU 0 instructions: 50000001 cycles: 31170201 heartbeat IPC: 1.58895 cumulative IPC: 1.6041 (Simulation time: 0 hr 3 min 55 sec) 

Warmup complete CPU 0 instructions: 50000001 cycles: 31170201 (Simulation time: 0 hr 3 min 55 sec) 

Heartbeat CPU 0 instructions: 60000000 cycles: 70443122 heartbeat IPC: 0.254628 cumulative IPC: 0.254628 (Simulation time: 0 hr 4 min 49 sec) 
Heartbeat CPU 0 instructions: 70000003 cycles: 116529448 heartbeat IPC: 0.216984 cumulative IPC: 0.234304 (Simulation time: 0 hr 5 min 46 sec) 
Heartbeat CPU 0 instructions: 80000002 cycles: 146445390 heartbeat IPC: 0.33427 cumulative IPC: 0.260247 (Simulation time: 0 hr 6 min 36 sec) 
Heartbeat CPU 0 instructions: 90000002 cycles: 177304432 heartbeat IPC: 0.324054 cumulative IPC: 0.273721 (Simulation time: 0 hr 7 min 26 sec) 
Heartbeat CPU 0 instructions: 100000001 cycles: 205634307 heartbeat IPC: 0.352984 cumulative IPC: 0.286592 (Simulation time: 0 hr 8 min 14 sec) 
Heartbeat CPU 0 instructions: 110000000 cycles: 256671558 heartbeat IPC: 0.195935 cumulative IPC: 0.266074 (Simulation time: 0 hr 9 min 14 sec) 
Heartbeat CPU 0 instructions: 120000000 cycles: 295386598 heartbeat IPC: 0.258298 cumulative IPC: 0.264934 (Simulation time: 0 hr 10 min 6 sec) 
Heartbeat CPU 0 instructions: 130000000 cycles: 329644116 heartbeat IPC: 0.291907 cumulative IPC: 0.26803 (Simulation time: 0 hr 10 min 58 sec) 
Heartbeat CPU 0 instructions: 140000000 cycles: 373466364 heartbeat IPC: 0.228195 cumulative IPC: 0.26293 (Simulation time: 0 hr 11 min 50 sec) 
Heartbeat CPU 0 instructions: 150000001 cycles: 436601976 heartbeat IPC: 0.158389 cumulative IPC: 0.246651 (Simulation time: 0 hr 12 min 52 sec) 
Heartbeat CPU 0 instructions: 160000000 cycles: 467126418 heartbeat IPC: 0.327606 cumulative IPC: 0.252319 (Simulation time: 0 hr 13 min 41 sec) 
Heartbeat CPU 0 instructions: 170000002 cycles: 491477852 heartbeat IPC: 0.410654 cumulative IPC: 0.260695 (Simulation time: 0 hr 14 min 25 sec) 
Heartbeat CPU 0 instructions: 180000000 cycles: 561333508 heartbeat IPC: 0.143152 cumulative IPC: 0.245207 (Simulation time: 0 hr 15 min 26 sec) 
Heartbeat CPU 0 instructions: 190000003 cycles: 586863696 heartbeat IPC: 0.391693 cumulative IPC: 0.251937 (Simulation time: 0 hr 16 min 10 sec) 
Heartbeat CPU 0 instructions: 200000000 cycles: 618744305 heartbeat IPC: 0.31367 cumulative IPC: 0.255287 (Simulation time: 0 hr 16 min 55 sec) 
Heartbeat CPU 0 instructions: 210000001 cycles: 665582716 heartbeat IPC: 0.2135 cumulative IPC: 0.252202 (Simulation time: 0 hr 17 min 47 sec) 
Heartbeat CPU 0 instructions: 220000000 cycles: 723398951 heartbeat IPC: 0.172962 cumulative IPC: 0.245584 (Simulation time: 0 hr 18 min 40 sec) 
Heartbeat CPU 0 instructions: 230000000 cycles: 756334674 heartbeat IPC: 0.303622 cumulative IPC: 0.24822 (Simulation time: 0 hr 19 min 24 sec) 
Heartbeat CPU 0 instructions: 240000002 cycles: 790169708 heartbeat IPC: 0.295552 cumulative IPC: 0.25033 (Simulation time: 0 hr 20 min 8 sec) 
Heartbeat CPU 0 instructions: 250000000 cycles: 815607057 heartbeat IPC: 0.393123 cumulative IPC: 0.25496 (Simulation time: 0 hr 20 min 49 sec) 
Finished CPU 0 instructions: 200000002 cycles: 784436863 cumulative IPC: 0.25496 (Simulation time: 0 hr 20 min 49 sec) 
 Instruction ID: 250000010

ChampSim completed all CPUs

Region of Interest Statistics

CPU 0 cumulative IPC: 0.25496 instructions: 200000002 cycles: 784436863
ITLB SPEC fills:          0  NON-SPEC fills:          0
ITLB Test counter :          0
ITLB Leapfrog:          0
ITLB MSHR merge:          0
ITLB TOTAL     ACCESS:   35380906  HIT:   35380906  MISS:          0  HIT %:        100  MISS %:          0   MPKI: 0
ITLB LOAD TRANSLATION NON_SPEC    ACCESS:   35380906  HIT:   35380906  MISS:          0  HIT %:        100  MISS %:          0   MPKI: 0
ITLB PREFETCH  REQUESTED:          0  ISSUED:          0  USEFUL:          0  USELESS:          0
ITLB USEFUL LOAD PREFETCHES:          0 PREFETCH ISSUED TO LOWER LEVEL:          0  ACCURACY: -nan
ITLB TIMELY PREFETCHES:          0 LATE PREFETCHES: 0 DROPPED PREFETCHES: 0
ITLB COMMIT LATE PREFETCHES: 0 MISSED OPPORTUNITY: 0 LATE IN PQ: 0 UNCOVERED: 0
ITLB COMMIT LATE MSHR PREFETCHES: 0
ITLB MPKI TOTAL: 0 MSHR LATE: 0 PQ LATE: 0 COMMIT LATE: 0 MISSED OPPORTUNITY: 0 UNCOVERED: 0
ITLB PREFETCHES SAME FILL-ORIGIN LEVEL: 0 DIFFERENT FILL-ORIGIN LEVEL: 0
ITLB AVERAGE MISS LATENCY: -nan cycles
ITLB AVERAGE MISS LATENCY LOAD: -nan cycles
ITLB AVERAGE MISS LATENCY PREFETCH: -nan cycles
ITLB AVERAGE MSHR OCCUPANCY: 0
ITLB MSHR FULL: 0
ITLB RQ	ACCESS:   36247415	FORWARD:          0	MERGED:     866509	TO_CACHE:   35380906

DTLB SPEC fills:          0  NON-SPEC fills:          0
DTLB Test counter :          0
DTLB Leapfrog:          0
DTLB MSHR merge:          0
DTLB TOTAL     ACCESS:   72141363  HIT:   69218325  MISS:    2923038  HIT %:    95.9482  MISS %:    4.05182   MPKI: 14.6152
DTLB LOAD TRANSLATION NON_SPEC    ACCESS:   72141363  HIT:   69218325  MISS:    2923038  HIT %:    95.9482  MISS %:    4.05182   MPKI: 14.6152
DTLB PREFETCH  REQUESTED:          0  ISSUED:          0  USEFUL:          0  USELESS:          0
DTLB USEFUL LOAD PREFETCHES:          0 PREFETCH ISSUED TO LOWER LEVEL:          0  ACCURACY: -nan
DTLB TIMELY PREFETCHES:          0 LATE PREFETCHES: 0 DROPPED PREFETCHES: 0
DTLB COMMIT LATE PREFETCHES: 0 MISSED OPPORTUNITY: 0 LATE IN PQ: 0 UNCOVERED: 0
DTLB COMMIT LATE MSHR PREFETCHES: 0
DTLB MPKI TOTAL: 0 MSHR LATE: 0 PQ LATE: 0 COMMIT LATE: 0 MISSED OPPORTUNITY: 0 UNCOVERED: 0
DTLB PREFETCHES SAME FILL-ORIGIN LEVEL: 0 DIFFERENT FILL-ORIGIN LEVEL: 0
DTLB AVERAGE MISS LATENCY: 87.7887 cycles
DTLB AVERAGE MISS LATENCY LOAD: -nan cycles
DTLB AVERAGE MISS LATENCY PREFETCH: -nan cycles
DTLB AVERAGE MSHR OCCUPANCY: 0.180204
DTLB MSHR FULL: 0
DTLB RQ	ACCESS:   84433016	FORWARD:          0	MERGED:   11404517	TO_CACHE:   73028499

STLB SPEC fills:          0  NON-SPEC fills:          0
STLB Test counter :          0
STLB Leapfrog:          0
STLB MSHR merge:          0
STLB TOTAL     ACCESS:    9074694  HIT:    7629263  MISS:    1445431  HIT %:    84.0718  MISS %:    15.9282   MPKI: 7.22715
STLB LOAD TRANSLATION NON_SPEC    ACCESS:    2923038  HIT:    1481180  MISS:    1441858  HIT %:    50.6726  MISS %:    49.3274   MPKI: 7.20929
STLB TRANSLATION FROM L1D PREFETCHER NON_SPEC    ACCESS:    6151656  HIT:    6148083  MISS:       3573  HIT %:    99.9419  MISS %:  0.0580819   MPKI: 0.017865
STLB PREFETCH  REQUESTED:          0  ISSUED:          0  USEFUL:       3395  USELESS:        178
STLB USEFUL LOAD PREFETCHES:       3395 PREFETCH ISSUED TO LOWER LEVEL:          0  ACCURACY: inf
STLB TIMELY PREFETCHES:       3395 LATE PREFETCHES: 71 DROPPED PREFETCHES: 10525
STLB COMMIT LATE PREFETCHES: 0 MISSED OPPORTUNITY: 0 LATE IN PQ: 0 UNCOVERED: 0
STLB COMMIT LATE MSHR PREFETCHES: 0
STLB MPKI TOTAL: 0 MSHR LATE: 0.000355 PQ LATE: 0 COMMIT LATE: 0 MISSED OPPORTUNITY: 0 UNCOVERED: 0
STLB PREFETCHES SAME FILL-ORIGIN LEVEL: 0 DIFFERENT FILL-ORIGIN LEVEL: 0
STLB AVERAGE MISS LATENCY: 159.411 cycles
STLB AVERAGE MISS LATENCY LOAD: -nan cycles
STLB AVERAGE MISS LATENCY PREFETCH: -nan cycles
STLB AVERAGE MSHR OCCUPANCY: 0.17476
STLB MSHR FULL: 0
STLB RQ	ACCESS:   30183732	FORWARD:          0	MERGED:   21098197	TO_CACHE:    9085535

STLB Hit, L1D data hit: 0
STLB Hit, L2C data hit: 0
STLB Hit, LLC data hit: 0
STLB Hit, LLC data miss: 0
STLB STLB hints to L2: 0
L0D SPEC fills:   42536181  NON-SPEC fills:          0
L0D TimeGuard Request with older TS:     343640 Restricted eviction:     144054 read:     259396
L0D Test counter :          0
L0D Leapfrog:          0
L0D MSHR merge:     632707
L0D TOTAL     ACCESS:   63552255  HIT:    4493760  MISS:   59058495  HIT %:    7.07097  MISS %:     92.929   MPKI: 295.292
L0D LOAD      TOTAL       ACCESS:   63552255  HIT:    4493760  MISS:   59058495  HIT %:    7.07097  MISS %:     92.929   MPKI: 295.292
L0D LOAD      NON_SPEC    ACCESS:   16830977  HIT:     452715  MISS:   16378262  HIT %:    2.68977  MISS %:    97.3102   MPKI: 81.8913
L0D LOAD      SPEC        ACCESS:   46721278  HIT:    4041045  MISS:   42680233  HIT %:    8.64926  MISS %:    91.3507   MPKI: 213.401
L0D PREFETCH  REQUESTED:          0  ISSUED:          0  USEFUL:          0  USELESS:          0
L0D USEFUL LOAD PREFETCHES:          0 PREFETCH ISSUED TO LOWER LEVEL:          0  ACCURACY: -nan
L0D TIMELY PREFETCHES:          0 LATE PREFETCHES: 0 DROPPED PREFETCHES: 0
L0D COMMIT LATE PREFETCHES: 0 MISSED OPPORTUNITY: 0 LATE IN PQ: 0 UNCOVERED: 0
L0D COMMIT LATE MSHR PREFETCHES: 0
L0D MPKI TOTAL: 298.456 MSHR LATE: 0 PQ LATE: 0 COMMIT LATE: 0 MISSED OPPORTUNITY: 0 UNCOVERED: 0
L0D PREFETCHES SAME FILL-ORIGIN LEVEL: 0 DIFFERENT FILL-ORIGIN LEVEL: 0
L0D AVERAGE MISS LATENCY: 15.4543 cycles
L0D AVERAGE MISS LATENCY LOAD: 15.4543 cycles
L0D AVERAGE MISS LATENCY PREFETCH: -nan cycles
L0D AVERAGE MSHR OCCUPANCY: 0.783348
L0D MSHR FULL: 1.558e-07
L0D RQ	ACCESS:   67638390	FORWARD:          0	MERGED:    3453432	TO_CACHE:   64184958
L0D WQ	ACCESS:   20248058	FORWARD:          0	MERGED:          0	TO_CACHE:   20248058

L1D SPEC fills:          0  NON-SPEC fills:    2065791
L1D Test counter :    3230172
L1D Leapfrog:          0
L1D MSHR merge:       2519
L1D TOTAL     ACCESS:  104213660  HIT:   92426236  MISS:   11787424  HIT %:    88.6892  MISS %:    11.3108   MPKI: 58.9371
L1D LOAD      TOTAL       ACCESS:   59056053  HIT:   52214198  MISS:    6841855  HIT %:    88.4146  MISS %:    11.5854   MPKI: 34.2093
L1D LOAD      NON_SPEC    ACCESS:   16377874  HIT:   14312083  MISS:    2065791  HIT %:    87.3867  MISS %:    12.6133   MPKI: 10.329
L1D LOAD      SPEC        ACCESS:   42678179  HIT:   37902115  MISS:    4776064  HIT %:    88.8091  MISS %:    11.1909   MPKI: 23.8803
L1D RFO       NON_SPEC    ACCESS:   20082360  HIT:   20033050  MISS:      49310  HIT %:    99.7545  MISS %:   0.245539   MPKI: 0.24655
L1D PREFETCH  NON_SPEC    ACCESS:   20205839  HIT:   20059206  MISS:     146633  HIT %:    99.2743  MISS %:   0.725696   MPKI: 0.733165
L1D COMMIT LOAD NON_SPEC    ACCESS:     160343  HIT:      93942  MISS:      66401  HIT %:    58.5882  MISS %:    41.4118   MPKI: 0.332005
L1D COMMIT WRITE NON_SPEC    ACCESS:    4709065  HIT:      25840  MISS:    4683225  HIT %:   0.548729  MISS %:    99.4513   MPKI: 23.4161
L1D PREFETCH  REQUESTED:   27954276  ISSUED:   27953971  USEFUL:     141750  USELESS:       4885
L1D USEFUL LOAD PREFETCHES:     141750 PREFETCH ISSUED TO LOWER LEVEL:    7154775  ACCURACY: 1.98119
L1D TIMELY PREFETCHES:     141750 LATE PREFETCHES: 77 DROPPED PREFETCHES: 29170
L1D COMMIT LATE PREFETCHES: 0 MISSED OPPORTUNITY: 0 LATE IN PQ: 0 UNCOVERED: 0
L1D COMMIT LATE MSHR PREFETCHES: 0
L1D MPKI TOTAL: 34.2215 MSHR LATE: 0.000385 PQ LATE: 0 COMMIT LATE: 0 MISSED OPPORTUNITY: 0 UNCOVERED: 0
L1D PREFETCHES SAME FILL-ORIGIN LEVEL: 146710 DIFFERENT FILL-ORIGIN LEVEL: 7008065
L1D AVERAGE MISS LATENCY: 52.9185 cycles
L1D AVERAGE MISS LATENCY LOAD: 89.3381 cycles
L1D AVERAGE MISS LATENCY PREFETCH: 40.5586 cycles
L1D AVERAGE MSHR OCCUPANCY: 0.290284
L1D MSHR FULL: 0
L1D RQ	ACCESS:   59220860	FORWARD:          0	MERGED:       1690	TO_CACHE:   59219120
L1D WQ	ACCESS:   24957123	FORWARD:         50	MERGED:      84047	TO_CACHE:   24873076
L1D PQ	ACCESS:   27953971	FORWARD:          0	MERGED:     693277	TO_CACHE:   27260694

L1D UNIQUE REGIONS ACCESSED: 0
L1D REGIONS CONFLICTS: 0
L1D Cross Page Prefetch Requests: 2060195
L1D Same Page Prefetch Requests: 30012828
L1D ROI Sum of L1D PQ occupancy: 414197154
L1D PREFETCHES PUSHED FROM L2C: 0
L1I SPEC fills:          0  NON-SPEC fills:          0
L1I Test counter :          0
L1I Leapfrog:          0
L1I MSHR merge:          0
L1I TOTAL     ACCESS:   36247414  HIT:   36247414  MISS:          0  HIT %:        100  MISS %:          0   MPKI: 0
L1I LOAD      TOTAL       ACCESS:   36247414  HIT:   36247414  MISS:          0  HIT %:        100  MISS %:          0   MPKI: 0
L1I LOAD      NON_SPEC    ACCESS:   36247414  HIT:   36247414  MISS:          0  HIT %:        100  MISS %:          0   MPKI: 0
L1I PREFETCH  REQUESTED:          0  ISSUED:          0  USEFUL:          0  USELESS:          0
L1I USEFUL LOAD PREFETCHES:          0 PREFETCH ISSUED TO LOWER LEVEL:          0  ACCURACY: -nan
L1I TIMELY PREFETCHES:          0 LATE PREFETCHES: 0 DROPPED PREFETCHES: 0
L1I COMMIT LATE PREFETCHES: 0 MISSED OPPORTUNITY: 0 LATE IN PQ: 0 UNCOVERED: 0
L1I COMMIT LATE MSHR PREFETCHES: 0
L1I MPKI TOTAL: 0 MSHR LATE: 0 PQ LATE: 0 COMMIT LATE: 0 MISSED OPPORTUNITY: 0 UNCOVERED: 0
L1I PREFETCHES SAME FILL-ORIGIN LEVEL: 0 DIFFERENT FILL-ORIGIN LEVEL: 0
L1I AVERAGE MISS LATENCY: -nan cycles
L1I AVERAGE MISS LATENCY LOAD: -nan cycles
L1I AVERAGE MISS LATENCY PREFETCH: -nan cycles
L1I AVERAGE MSHR OCCUPANCY: 0
L1I MSHR FULL: 0
L1I RQ	ACCESS:   57477598	FORWARD:          0	MERGED:   21230183	TO_CACHE:   36247415

BTB SPEC fills:          0  NON-SPEC fills:          0
BTB Test counter :          0
BTB Leapfrog:          0
BTB MSHR merge:          0
BTB TOTAL     ACCESS:   47143244  HIT:   44382765  MISS:    2760479  HIT %:    94.1445  MISS %:    5.85551   MPKI: 13.8024
BTB BRANCH_DIRECT_JUMP	ACCESS:    4520858  HIT:    4520837  MISS:         21
BTB BRANCH_INDIRECT	ACCESS:          0  HIT:          0  MISS:          0
BTB BRANCH_CONDITIONAL	ACCESS:   30060450  HIT:   30060408  MISS:         42
BTB BRANCH_DIRECT_CALL	ACCESS:    6072091  HIT:    6072078  MISS:         13
BTB BRANCH_INDIRECT_CALL	ACCESS:     208878  HIT:     208870  MISS:          8
BTB BRANCH_RETURN	ACCESS:    6280967  HIT:    3520572  MISS:    2760395
BTB BRANCH_OTHER ACCESS:          0  HIT:          0  MISS:          0

L2C SPEC fills:          0  NON-SPEC fills:    1126968
L2C Test counter :    3116149
L2C Leapfrog:          0
L2C MSHR merge:         75
L2C TOTAL     ACCESS:   24753371  HIT:   16756119  MISS:    7997252  HIT %:    67.6923  MISS %:    32.3077   MPKI: 39.9863
L2C LOAD      TOTAL       ACCESS:    6841754  HIT:    2682627  MISS:    4159127  HIT %:    39.2096  MISS %:    60.7904   MPKI: 20.7956
L2C LOAD      NON_SPEC    ACCESS:    2065791  HIT:     938823  MISS:    1126968  HIT %:    45.4462  MISS %:    54.5538   MPKI: 5.63484
L2C LOAD      SPEC        ACCESS:    4775963  HIT:    1743804  MISS:    3032159  HIT %:    36.5121  MISS %:    63.4879   MPKI: 15.1608
L2C RFO       NON_SPEC    ACCESS:      49309  HIT:      41971  MISS:       7338  HIT %:    85.1183  MISS %:    14.8817   MPKI: 0.03669
L2C PREFETCH  NON_SPEC    ACCESS:    7106315  HIT:    6853986  MISS:     252329  HIT %:    96.4492  MISS %:    3.55077   MPKI: 1.26164
L2C WRITEBACK NON_SPEC    ACCESS:     179387  HIT:     178876  MISS:        511  HIT %:    99.7151  MISS %:   0.284859   MPKI: 0.002555
L2C CLEAN_EVICTION NON_SPEC    ACCESS:    3230172  HIT:     248882  MISS:    2981290  HIT %:    7.70491  MISS %:    92.2951   MPKI: 14.9064
L2C COMMIT LOAD NON_SPEC    ACCESS:      66401  HIT:      26436  MISS:      39965  HIT %:    39.8127  MISS %:    60.1873   MPKI: 0.199825
L2C LOAD TRANSLATION NON_SPEC    ACCESS:    7209188  HIT:    6653070  MISS:     556118  HIT %:     92.286  MISS %:    7.71402   MPKI: 2.78059
L2C TRANSLATION FROM L1D PREFETCHER NON_SPEC    ACCESS:      70845  HIT:      70271  MISS:        574  HIT %:    99.1898  MISS %:   0.810219   MPKI: 0.00287
L2C PREFETCH  REQUESTED:          0  ISSUED:          0  USEFUL:     154955  USELESS:      98117
L2C USEFUL LOAD PREFETCHES:     154955 PREFETCH ISSUED TO LOWER LEVEL:     252406  ACCURACY: 61.3912
L2C TIMELY PREFETCHES:     154955 LATE PREFETCHES: 77 DROPPED PREFETCHES: 0
L2C COMMIT LATE PREFETCHES: 0 MISSED OPPORTUNITY: 0 LATE IN PQ: 0 UNCOVERED: 0
L2C COMMIT LATE MSHR PREFETCHES: 0
L2C MPKI TOTAL: 20.7956 MSHR LATE: 0.000385 PQ LATE: 0 COMMIT LATE: 0 MISSED OPPORTUNITY: 0 UNCOVERED: 0
L2C PREFETCHES SAME FILL-ORIGIN LEVEL: 228201 DIFFERENT FILL-ORIGIN LEVEL: 0
L2C AVERAGE MISS LATENCY: 81.1899 cycles
L2C AVERAGE MISS LATENCY LOAD: 126.61 cycles
L2C AVERAGE MISS LATENCY PREFETCH: 149.939 cycles
L2C AVERAGE MSHR OCCUPANCY: 0.730244
L2C MSHR FULL: 0
L2C RQ	ACCESS:   14237522	FORWARD:          0	MERGED:          0	TO_CACHE:   14237497
L2C WQ	ACCESS:    3409559	FORWARD:         27	MERGED:          0	TO_CACHE:    3409559
L2C PQ	ACCESS:    7154775	FORWARD:          0	MERGED:          5	TO_CACHE:    7154768

L2C Instructions Evicting Data 0
L2C Translations Evicting Data 483222
L2C Data Evicting Data 1269478
L2C Instructions Evicting Instructions 0
L2C Translations Evicting Instructions 0
L2C Data Evicting Instructions 0
L2C Instructions Evicting Translations 0
L2C Translations Evicting Translations 73470
L2C Data Evicting Translations 157122
L2C Dense regions hint from L2: 0
PSCL5 SPEC fills:          0  NON-SPEC fills:          0
PSCL5 Test counter :          0
PSCL5 Leapfrog:          0
PSCL5 MSHR merge:          0
PSCL5 TOTAL     ACCESS:          0  HIT:          0  MISS:          0  HIT %:       -nan  MISS %:       -nan   MPKI: 0
PSCL5 PREFETCH  REQUESTED:          0  ISSUED:          0  USEFUL:          0  USELESS:          0
PSCL5 USEFUL LOAD PREFETCHES:          0 PREFETCH ISSUED TO LOWER LEVEL:          0  ACCURACY: -nan
PSCL5 TIMELY PREFETCHES:          0 LATE PREFETCHES: 0 DROPPED PREFETCHES: 0
PSCL5 COMMIT LATE PREFETCHES: 0 MISSED OPPORTUNITY: 0 LATE IN PQ: 0 UNCOVERED: 0
PSCL5 COMMIT LATE MSHR PREFETCHES: 0
PSCL5 MPKI TOTAL: 0 MSHR LATE: 0 PQ LATE: 0 COMMIT LATE: 0 MISSED OPPORTUNITY: 0 UNCOVERED: 0
PSCL5 PREFETCHES SAME FILL-ORIGIN LEVEL: 0 DIFFERENT FILL-ORIGIN LEVEL: 0

PSCL4 SPEC fills:          0  NON-SPEC fills:          0
PSCL4 Test counter :          0
PSCL4 Leapfrog:          0
PSCL4 MSHR merge:          0
PSCL4 TOTAL     ACCESS:          0  HIT:          0  MISS:          0  HIT %:       -nan  MISS %:       -nan   MPKI: 0
PSCL4 PREFETCH  REQUESTED:          0  ISSUED:          0  USEFUL:          0  USELESS:          0
PSCL4 USEFUL LOAD PREFETCHES:          0 PREFETCH ISSUED TO LOWER LEVEL:          0  ACCURACY: -nan
PSCL4 TIMELY PREFETCHES:          0 LATE PREFETCHES: 0 DROPPED PREFETCHES: 0
PSCL4 COMMIT LATE PREFETCHES: 0 MISSED OPPORTUNITY: 0 LATE IN PQ: 0 UNCOVERED: 0
PSCL4 COMMIT LATE MSHR PREFETCHES: 0
PSCL4 MPKI TOTAL: 0 MSHR LATE: 0 PQ LATE: 0 COMMIT LATE: 0 MISSED OPPORTUNITY: 0 UNCOVERED: 0
PSCL4 PREFETCHES SAME FILL-ORIGIN LEVEL: 0 DIFFERENT FILL-ORIGIN LEVEL: 0

PSCL3 SPEC fills:          0  NON-SPEC fills:          0
PSCL3 Test counter :          0
PSCL3 Leapfrog:          0
PSCL3 MSHR merge:          0
PSCL3 TOTAL     ACCESS:          0  HIT:          0  MISS:          0  HIT %:       -nan  MISS %:       -nan   MPKI: 0
PSCL3 PREFETCH  REQUESTED:          0  ISSUED:          0  USEFUL:          0  USELESS:          0
PSCL3 USEFUL LOAD PREFETCHES:          0 PREFETCH ISSUED TO LOWER LEVEL:          0  ACCURACY: -nan
PSCL3 TIMELY PREFETCHES:          0 LATE PREFETCHES: 0 DROPPED PREFETCHES: 0
PSCL3 COMMIT LATE PREFETCHES: 0 MISSED OPPORTUNITY: 0 LATE IN PQ: 0 UNCOVERED: 0
PSCL3 COMMIT LATE MSHR PREFETCHES: 0
PSCL3 MPKI TOTAL: 0 MSHR LATE: 0 PQ LATE: 0 COMMIT LATE: 0 MISSED OPPORTUNITY: 0 UNCOVERED: 0
PSCL3 PREFETCHES SAME FILL-ORIGIN LEVEL: 0 DIFFERENT FILL-ORIGIN LEVEL: 0

PSCL2 SPEC fills:          0  NON-SPEC fills:          0
PSCL2 Test counter :          0
PSCL2 Leapfrog:          0
PSCL2 MSHR merge:          0
PSCL2 TOTAL     ACCESS:          0  HIT:          0  MISS:          0  HIT %:       -nan  MISS %:       -nan   MPKI: 0
PSCL2 PREFETCH  REQUESTED:          0  ISSUED:          0  USEFUL:          0  USELESS:          0
PSCL2 USEFUL LOAD PREFETCHES:          0 PREFETCH ISSUED TO LOWER LEVEL:          0  ACCURACY: -nan
PSCL2 TIMELY PREFETCHES:          0 LATE PREFETCHES: 0 DROPPED PREFETCHES: 0
PSCL2 COMMIT LATE PREFETCHES: 0 MISSED OPPORTUNITY: 0 LATE IN PQ: 0 UNCOVERED: 0
PSCL2 COMMIT LATE MSHR PREFETCHES: 0
PSCL2 MPKI TOTAL: 0 MSHR LATE: 0 PQ LATE: 0 COMMIT LATE: 0 MISSED OPPORTUNITY: 0 UNCOVERED: 0
PSCL2 PREFETCHES SAME FILL-ORIGIN LEVEL: 0 DIFFERENT FILL-ORIGIN LEVEL: 0

LLC SPEC fills:          0  NON-SPEC fills:     705788
LLC Test counter :    2133049
LLC Leapfrog:          0
LLC MSHR merge:          0
LLC TOTAL     ACCESS:    8232730  HIT:    3159213  MISS:    5073517  HIT %:    38.3738  MISS %:    61.6262   MPKI: 25.3676
LLC LOAD      TOTAL       ACCESS:    4159032  HIT:    1574431  MISS:    2584601  HIT %:    37.8557  MISS %:    62.1443   MPKI: 12.923
LLC LOAD      NON_SPEC    ACCESS:    1126957  HIT:     421169  MISS:     705788  HIT %:    37.3722  MISS %:    62.6278   MPKI: 3.52894
LLC LOAD      SPEC        ACCESS:    3032075  HIT:    1153262  MISS:    1878813  HIT %:    38.0354  MISS %:    61.9646   MPKI: 9.39406
LLC RFO       NON_SPEC    ACCESS:       7337  HIT:       4544  MISS:       2793  HIT %:    61.9327  MISS %:    38.0673   MPKI: 0.013965
LLC PREFETCH  NON_SPEC    ACCESS:     252405  HIT:      87362  MISS:     165043  HIT %:    34.6118  MISS %:    65.3882   MPKI: 0.825215
LLC WRITEBACK NON_SPEC    ACCESS:     101152  HIT:     101010  MISS:        142  HIT %:    99.8596  MISS %:   0.140383   MPKI: 0.00071
LLC CLEAN_EVICTION NON_SPEC    ACCESS:    3116149  HIT:    1155366  MISS:    1960783  HIT %:    37.0767  MISS %:    62.9233   MPKI: 9.80391
LLC COMMIT LOAD NON_SPEC    ACCESS:      39963  HIT:      21989  MISS:      17974  HIT %:    55.0234  MISS %:    44.9766   MPKI: 0.08987
LLC LOAD TRANSLATION NON_SPEC    ACCESS:     556118  HIT:     214214  MISS:     341904  HIT %:    38.5195  MISS %:    61.4805   MPKI: 1.70952
LLC TRANSLATION FROM L1D PREFETCHER NON_SPEC    ACCESS:        574  HIT:        297  MISS:        277  HIT %:    51.7422  MISS %:    48.2578   MPKI: 0.001385
LLC PREFETCH  REQUESTED:          0  ISSUED:          0  USEFUL:       9463  USELESS:     154729
LLC USEFUL LOAD PREFETCHES:       9463 PREFETCH ISSUED TO LOWER LEVEL:     165043  ACCURACY: 5.73366
LLC TIMELY PREFETCHES:       9463 LATE PREFETCHES: 0 DROPPED PREFETCHES: 0
LLC COMMIT LATE PREFETCHES: 0 MISSED OPPORTUNITY: 0 LATE IN PQ: 0 UNCOVERED: 0
LLC COMMIT LATE MSHR PREFETCHES: 0
LLC MPKI TOTAL: 12.923 MSHR LATE: 0 PQ LATE: 0 COMMIT LATE: 0 MISSED OPPORTUNITY: 0 UNCOVERED: 0
LLC PREFETCHES SAME FILL-ORIGIN LEVEL: 0 DIFFERENT FILL-ORIGIN LEVEL: 0
LLC AVERAGE MISS LATENCY: 103.581 cycles
LLC AVERAGE MISS LATENCY LOAD: 165.81 cycles
LLC AVERAGE MISS LATENCY PREFETCH: 183.085 cycles
LLC AVERAGE MSHR OCCUPANCY: 0.774576
LLC MSHR FULL: 0
LLC RQ	ACCESS:    4763045	FORWARD:          0	MERGED:          0	TO_CACHE:    4763024
LLC WQ	ACCESS:    3217301	FORWARD:         22	MERGED:          0	TO_CACHE:    3217301
LLC PQ	ACCESS:     252406	FORWARD:          0	MERGED:          0	TO_CACHE:     252405

LLC Dense regions hint to LLC: 0

RAW hits: 1747705
Loads Generated: 69386095
Loads sent to L1D: 67638390
Stores Generated: 20248054
Stores sent to L1D: 20248058
Major fault: 0 Minor fault: 167265
Allocated PAGES: 167265
Total Load insts: 83814633
Total Non-spec loads: 18789612
Percentage of speculative loads: 77.5819

LeapFrogging counter: 5
Commit hits: 42314529 miss: 8333830
Commit hit %: 83.5457 miss %: 16.4543
Commits not translated: 0
Loads retired: 6841855
Stores retired: 20248058
Cache fills: 6841855
L1D response latency: 89.3381 cycles
Load retirement latency: 183.671 cycles
OOO test counter: 0
Discarded buffer inserts: 42314529 hits: 3790 hit %: 0.00895673
LATENCY_FILL: 6.23744 4794016

DRAM Statistics
 CHANNEL 0
 RQ ROW_BUFFER_HIT:      76100  ROW_BUFFER_MISS:    3036327
 DBUS_CONGESTED:       1042
 WQ ROW_BUFFER_HIT:     767445  ROW_BUFFER_MISS:    1434897  FULL:         11

 AVG_CONGESTED_CYCLE: 5
 All warmup complete: 2
Channel 0 Bank busy for read cycles: 0
Channel 0 Bank busy for write cycles: 0
Channel 0
Rank 0
0banks busy for read cycles: 342544763
0banks busy for write cycles: 242922
1banks busy for read cycles: 146842879
1banks busy for write cycles: 44266985
2banks busy for read cycles: 88401156
2banks busy for write cycles: 33108100
3banks busy for read cycles: 26686717
3banks busy for write cycles: 23725196
4banks busy for read cycles: 10558595
4banks busy for write cycles: 16898572
5banks busy for read cycles: 2167163
5banks busy for write cycles: 13040374
6banks busy for read cycles: 437659
6banks busy for write cycles: 11887991
7banks busy for read cycles: 69090
7banks busy for write cycles: 12613056
8banks busy for read cycles: 2712
8banks busy for write cycles: 10942934

CPU 0 Branch Prediction Accuracy: 94.7162% MPKI: 13.0983 Average ROB Occupancy at Mispredict: 22.9084
Branch types
NOT_BRANCH: 150420417 75.2102%
BRANCH_DIRECT_JUMP: 4520858 2.26043%
BRANCH_INDIRECT: 0 0%
BRANCH_CONDITIONAL: 32496416 16.2482%
BRANCH_DIRECT_CALL: 6072091 3.03605%
BRANCH_INDIRECT_CALL: 208878 0.104439%
BRANCH_RETURN: 6280967 3.14048%
BRANCH_OTHER: 0 0%

DRAM PAGES: 1048576
Allocated PAGES: 167265
