
*** ChampSim Multicore Out-of-Order Simulator ***

Warmup Instructions: 50000000
Simulation Instructions: 200000000
Number of CPUs: 1
LLC sets: 2048
LLC ways: 16
L0D sets: 16
L0D ways: 2
ROB size: 352
LQ size: 128
SQ size: 72
Secure Berti: OFF
Berti: OFF
Berti Fill: OFF
On commit prefetching: ON
Hit-based filter: ON
Time-guarding: ON
Free-slotting: ON
Leap-frogging: ON
Train prefetcher on L0D bypass: OFF
No translation penalty for prefetchers: OFF
Prefetch to L0D only: OFF
Prefetch to L1D only: OFF
Clean evictions: ON
Commit loads: ON
Commit write: ON
Fill commit loads to L2C, LLC: ON
DRAM IO FREQUENCY: 6400
ROB SIZE: 352
Off-chip DRAM Size: 4096 MB Channels: 1 Width: 64-bit Data Rate: 6400 MT/s
CPU 0 runs /home/sumon/secure_berti/GhostMinion/../../traces/spec/619.lbm_s-3766B.champsimtrace.xz
.xz
BTB has LRU replacement policy
ITLB has LRU replacement policy
DTLB has LRU replacement policy
STLB has LRU replacement policy
L1I has LRU replacement policy
L0D has LRU replacement policy
History Sets: 8
History Ways: 16
BERTI Size: 16
BERTI Stride Size: 16
L1D has LRU replacement policy
L2C has LRU replacement policy
LLC has LRU replacement policy
Heartbeat CPU 0 instructions: 10000000 cycles: 2866621 heartbeat IPC: 3.48843 cumulative IPC: 3.48843 (Simulation time: 0 hr 0 min 34 sec) 
Heartbeat CPU 0 instructions: 20000002 cycles: 5736592 heartbeat IPC: 3.48436 cumulative IPC: 3.48639 (Simulation time: 0 hr 1 min 8 sec) 
Heartbeat CPU 0 instructions: 30000000 cycles: 8603072 heartbeat IPC: 3.4886 cumulative IPC: 3.48713 (Simulation time: 0 hr 1 min 41 sec) 
Heartbeat CPU 0 instructions: 40000003 cycles: 11472954 heartbeat IPC: 3.48446 cumulative IPC: 3.48646 (Simulation time: 0 hr 2 min 15 sec) 
Heartbeat CPU 0 instructions: 50000000 cycles: 14342783 heartbeat IPC: 3.48453 cumulative IPC: 3.48607 (Simulation time: 0 hr 2 min 50 sec) 

Warmup complete CPU 0 instructions: 50000004 cycles: 14342784 (Simulation time: 0 hr 2 min 50 sec) 

Heartbeat CPU 0 instructions: 60000000 cycles: 27601568 heartbeat IPC: 0.754217 cumulative IPC: 0.754217 (Simulation time: 0 hr 3 min 33 sec) 
Heartbeat CPU 0 instructions: 70000000 cycles: 41013752 heartbeat IPC: 0.745591 cumulative IPC: 0.749879 (Simulation time: 0 hr 4 min 16 sec) 
Heartbeat CPU 0 instructions: 80000003 cycles: 54153745 heartbeat IPC: 0.761036 cumulative IPC: 0.753561 (Simulation time: 0 hr 4 min 59 sec) 
Heartbeat CPU 0 instructions: 90000001 cycles: 67600439 heartbeat IPC: 0.743677 cumulative IPC: 0.751066 (Simulation time: 0 hr 5 min 42 sec) 
Heartbeat CPU 0 instructions: 100000003 cycles: 80786684 heartbeat IPC: 0.758366 cumulative IPC: 0.752515 (Simulation time: 0 hr 6 min 24 sec) 
Heartbeat CPU 0 instructions: 110000000 cycles: 94938815 heartbeat IPC: 0.706607 cumulative IPC: 0.744453 (Simulation time: 0 hr 7 min 8 sec) 
Heartbeat CPU 0 instructions: 120000003 cycles: 109504398 heartbeat IPC: 0.68655 cumulative IPC: 0.735591 (Simulation time: 0 hr 7 min 52 sec) 
Heartbeat CPU 0 instructions: 130000000 cycles: 126895819 heartbeat IPC: 0.574996 cumulative IPC: 0.710776 (Simulation time: 0 hr 8 min 40 sec) 
Heartbeat CPU 0 instructions: 140000002 cycles: 146313553 heartbeat IPC: 0.514993 cumulative IPC: 0.681969 (Simulation time: 0 hr 9 min 31 sec) 
Heartbeat CPU 0 instructions: 150000002 cycles: 168699337 heartbeat IPC: 0.446712 cumulative IPC: 0.647851 (Simulation time: 0 hr 10 min 24 sec) 
Heartbeat CPU 0 instructions: 160000003 cycles: 196235435 heartbeat IPC: 0.36316 cumulative IPC: 0.604752 (Simulation time: 0 hr 11 min 26 sec) 
Heartbeat CPU 0 instructions: 170000003 cycles: 229665573 heartbeat IPC: 0.299131 cumulative IPC: 0.557303 (Simulation time: 0 hr 12 min 36 sec) 
Heartbeat CPU 0 instructions: 180000003 cycles: 265510601 heartbeat IPC: 0.278979 cumulative IPC: 0.517582 (Simulation time: 0 hr 13 min 49 sec) 
Heartbeat CPU 0 instructions: 190000001 cycles: 303193843 heartbeat IPC: 0.26537 cumulative IPC: 0.484679 (Simulation time: 0 hr 15 min 3 sec) 
Heartbeat CPU 0 instructions: 200000003 cycles: 337821768 heartbeat IPC: 0.288784 cumulative IPC: 0.463709 (Simulation time: 0 hr 16 min 14 sec) 
Heartbeat CPU 0 instructions: 210000003 cycles: 370193936 heartbeat IPC: 0.308907 cumulative IPC: 0.449626 (Simulation time: 0 hr 17 min 19 sec) 
Heartbeat CPU 0 instructions: 220000000 cycles: 400020792 heartbeat IPC: 0.335268 cumulative IPC: 0.440782 (Simulation time: 0 hr 18 min 20 sec) 
Heartbeat CPU 0 instructions: 230000000 cycles: 429045965 heartbeat IPC: 0.344529 cumulative IPC: 0.434045 (Simulation time: 0 hr 19 min 20 sec) 
Heartbeat CPU 0 instructions: 240000000 cycles: 456898328 heartbeat IPC: 0.359036 cumulative IPC: 0.429325 (Simulation time: 0 hr 20 min 18 sec) 
Heartbeat CPU 0 instructions: 250000000 cycles: 484717655 heartbeat IPC: 0.359462 cumulative IPC: 0.425193 (Simulation time: 0 hr 21 min 14 sec) 
Finished CPU 0 instructions: 200000000 cycles: 470374872 cumulative IPC: 0.425193 (Simulation time: 0 hr 21 min 14 sec) 
 Instruction ID: 250000075

ChampSim completed all CPUs

Region of Interest Statistics

CPU 0 cumulative IPC: 0.425193 instructions: 200000000 cycles: 470374872
ITLB SPEC fills:          0  NON-SPEC fills:          0
ITLB Test counter :          0
ITLB Leapfrog:          0
ITLB MSHR merge:          0
ITLB TOTAL     ACCESS:   26872422  HIT:   26872422  MISS:          0  HIT %:        100  MISS %:          0   MPKI: 0
ITLB LOAD TRANSLATION NON_SPEC    ACCESS:   26872422  HIT:   26872422  MISS:          0  HIT %:        100  MISS %:          0   MPKI: 0
ITLB PREFETCH  REQUESTED:          0  ISSUED:          0  USEFUL:          0  USELESS:          0
ITLB USEFUL LOAD PREFETCHES:          0 PREFETCH ISSUED TO LOWER LEVEL:          0  ACCURACY: -nan
ITLB TIMELY PREFETCHES:          0 LATE PREFETCHES: 0 DROPPED PREFETCHES: 0
ITLB COMMIT LATE PREFETCHES: 0 MISSED OPPORTUNITY: 0 LATE IN PQ: 0 UNCOVERED: 0
ITLB COMMIT LATE MSHR PREFETCHES: 0
ITLB MPKI TOTAL: 0 MSHR LATE: 0 PQ LATE: 0 COMMIT LATE: 0 MISSED OPPORTUNITY: 0 UNCOVERED: 0
ITLB PREFETCHES SAME FILL-ORIGIN LEVEL: 0 DIFFERENT FILL-ORIGIN LEVEL: 0
ITLB AVERAGE MISS LATENCY: -nan cycles
ITLB AVERAGE MISS LATENCY LOAD: -nan cycles
ITLB AVERAGE MISS LATENCY PREFETCH: -nan cycles
ITLB AVERAGE MSHR OCCUPANCY: 0
ITLB MSHR FULL: 0
ITLB RQ	ACCESS:   34781328	FORWARD:          0	MERGED:    7908906	TO_CACHE:   26872422

DTLB SPEC fills:          0  NON-SPEC fills:          0
DTLB Test counter :          0
DTLB Leapfrog:          0
DTLB MSHR merge:          0
DTLB TOTAL     ACCESS:   36688525  HIT:   36462812  MISS:     225713  HIT %:    99.3848  MISS %:   0.615214   MPKI: 1.12857
DTLB LOAD TRANSLATION NON_SPEC    ACCESS:   36688525  HIT:   36462812  MISS:     225713  HIT %:    99.3848  MISS %:   0.615214   MPKI: 1.12857
DTLB PREFETCH  REQUESTED:          0  ISSUED:          0  USEFUL:          0  USELESS:          0
DTLB USEFUL LOAD PREFETCHES:          0 PREFETCH ISSUED TO LOWER LEVEL:          0  ACCURACY: -nan
DTLB TIMELY PREFETCHES:          0 LATE PREFETCHES: 0 DROPPED PREFETCHES: 0
DTLB COMMIT LATE PREFETCHES: 0 MISSED OPPORTUNITY: 0 LATE IN PQ: 0 UNCOVERED: 0
DTLB COMMIT LATE MSHR PREFETCHES: 0
DTLB MPKI TOTAL: 0 MSHR LATE: 0 PQ LATE: 0 COMMIT LATE: 0 MISSED OPPORTUNITY: 0 UNCOVERED: 0
DTLB PREFETCHES SAME FILL-ORIGIN LEVEL: 0 DIFFERENT FILL-ORIGIN LEVEL: 0
DTLB AVERAGE MISS LATENCY: 128.646 cycles
DTLB AVERAGE MISS LATENCY LOAD: -nan cycles
DTLB AVERAGE MISS LATENCY PREFETCH: -nan cycles
DTLB AVERAGE MSHR OCCUPANCY: 0.0741837
DTLB MSHR FULL: 0
DTLB RQ	ACCESS:   59109558	FORWARD:          0	MERGED:   22340282	TO_CACHE:   36769276

STLB SPEC fills:          0  NON-SPEC fills:          0
STLB Test counter :          0
STLB Leapfrog:          0
STLB MSHR merge:          0
STLB TOTAL     ACCESS:     247731  HIT:     125273  MISS:     122458  HIT %:    50.5682  MISS %:    49.4318   MPKI: 0.61229
STLB LOAD TRANSLATION NON_SPEC    ACCESS:     225713  HIT:     103953  MISS:     121760  HIT %:    46.0554  MISS %:    53.9446   MPKI: 0.6088
STLB TRANSLATION FROM L1D PREFETCHER NON_SPEC    ACCESS:      22018  HIT:      21320  MISS:        698  HIT %:    96.8299  MISS %:    3.17013   MPKI: 0.00349
STLB PREFETCH  REQUESTED:          0  ISSUED:          0  USEFUL:        698  USELESS:          0
STLB USEFUL LOAD PREFETCHES:        698 PREFETCH ISSUED TO LOWER LEVEL:          0  ACCURACY: inf
STLB TIMELY PREFETCHES:        698 LATE PREFETCHES: 65 DROPPED PREFETCHES: 463
STLB COMMIT LATE PREFETCHES: 0 MISSED OPPORTUNITY: 0 LATE IN PQ: 0 UNCOVERED: 0
STLB COMMIT LATE MSHR PREFETCHES: 0
STLB MPKI TOTAL: 0 MSHR LATE: 0.000325 PQ LATE: 0 COMMIT LATE: 0 MISSED OPPORTUNITY: 0 UNCOVERED: 0
STLB PREFETCHES SAME FILL-ORIGIN LEVEL: 0 DIFFERENT FILL-ORIGIN LEVEL: 0
STLB AVERAGE MISS LATENCY: 221.307 cycles
STLB AVERAGE MISS LATENCY LOAD: -nan cycles
STLB AVERAGE MISS LATENCY PREFETCH: -nan cycles
STLB AVERAGE MSHR OCCUPANCY: 0.141554
STLB MSHR FULL: 0
STLB RQ	ACCESS:     334246	FORWARD:          0	MERGED:      85896	TO_CACHE:     248350

STLB Hit, L1D data hit: 0
STLB Hit, L2C data hit: 0
STLB Hit, LLC data hit: 0
STLB Hit, LLC data miss: 0
STLB STLB hints to L2: 0
L0D SPEC fills:   11879864  NON-SPEC fills:          0
L0D TimeGuard Request with older TS:     157454 Restricted eviction:      14749 read:    1288541
L0D Test counter :          0
L0D Leapfrog:          0
L0D MSHR merge:    4448775
L0D TOTAL     ACCESS:   20096925  HIT:    6984002  MISS:   13112923  HIT %:    34.7516  MISS %:    65.2484   MPKI: 65.5646
L0D LOAD      TOTAL       ACCESS:   20096925  HIT:    6984002  MISS:   13112923  HIT %:    34.7516  MISS %:    65.2484   MPKI: 65.5646
L0D LOAD      NON_SPEC    ACCESS:    1782946  HIT:     564636  MISS:    1218310  HIT %:    31.6687  MISS %:    68.3313   MPKI: 6.09155
L0D LOAD      SPEC        ACCESS:   18313979  HIT:    6419366  MISS:   11894613  HIT %:    35.0517  MISS %:    64.9483   MPKI: 59.4731
L0D PREFETCH  REQUESTED:          0  ISSUED:          0  USEFUL:          0  USELESS:          0
L0D USEFUL LOAD PREFETCHES:          0 PREFETCH ISSUED TO LOWER LEVEL:          0  ACCURACY: -nan
L0D TIMELY PREFETCHES:          0 LATE PREFETCHES: 0 DROPPED PREFETCHES: 0
L0D COMMIT LATE PREFETCHES: 0 MISSED OPPORTUNITY: 0 LATE IN PQ: 0 UNCOVERED: 0
L0D COMMIT LATE MSHR PREFETCHES: 0
L0D MPKI TOTAL: 87.8085 MSHR LATE: 0 PQ LATE: 0 COMMIT LATE: 0 MISSED OPPORTUNITY: 0 UNCOVERED: 0
L0D PREFETCHES SAME FILL-ORIGIN LEVEL: 0 DIFFERENT FILL-ORIGIN LEVEL: 0
L0D AVERAGE MISS LATENCY: 96.3912 cycles
L0D AVERAGE MISS LATENCY LOAD: 96.3912 cycles
L0D AVERAGE MISS LATENCY PREFETCH: -nan cycles
L0D AVERAGE MSHR OCCUPANCY: 1.86524
L0D MSHR FULL: 0.0517573
L0D RQ	ACCESS:   45409668	FORWARD:          0	MERGED:   20863970	TO_CACHE:   24545698
L0D WQ	ACCESS:   34563860	FORWARD:          0	MERGED:          0	TO_CACHE:   34563860

L1D SPEC fills:          0  NON-SPEC fills:      19541
L1D Test counter :    1944953
L1D Leapfrog:          0
L1D MSHR merge:       4034
L1D TOTAL     ACCESS:   51831704  HIT:   36689317  MISS:   15142387  HIT %:    70.7855  MISS %:    29.2145   MPKI: 75.7119
L1D LOAD      TOTAL       ACCESS:   13109039  HIT:   11092044  MISS:    2016995  HIT %:    84.6137  MISS %:    15.3863   MPKI: 10.085
L1D LOAD      NON_SPEC    ACCESS:    1216558  HIT:    1197017  MISS:      19541  HIT %:    98.3937  MISS %:    1.60625   MPKI: 0.097705
L1D LOAD      SPEC        ACCESS:   11892481  HIT:    9895027  MISS:    1997454  HIT %:    83.2041  MISS %:    16.7959   MPKI: 9.98727
L1D RFO       NON_SPEC    ACCESS:   34443306  HIT:   23494161  MISS:   10949145  HIT %:    68.2111  MISS %:    31.7889   MPKI: 54.7457
L1D PREFETCH  NON_SPEC    ACCESS:      31898  HIT:       7807  MISS:      24091  HIT %:    24.4749  MISS %:    75.5251   MPKI: 0.120455
L1D COMMIT LOAD NON_SPEC    ACCESS:    2244119  HIT:    2068896  MISS:     175223  HIT %:    92.1919  MISS %:     7.8081   MPKI: 0.876115
L1D COMMIT WRITE NON_SPEC    ACCESS:    2003342  HIT:      26409  MISS:    1976933  HIT %:    1.31825  MISS %:    98.6818   MPKI: 9.88467
L1D PREFETCH  REQUESTED:     120202  ISSUED:     109918  USEFUL:        944  USELESS:      23776
L1D USEFUL LOAD PREFETCHES:        944 PREFETCH ISSUED TO LOWER LEVEL:      96777  ACCURACY: 0.975438
L1D TIMELY PREFETCHES:        944 LATE PREFETCHES: 152 DROPPED PREFETCHES: 1486
L1D COMMIT LATE PREFETCHES: 0 MISSED OPPORTUNITY: 0 LATE IN PQ: 0 UNCOVERED: 0
L1D COMMIT LATE MSHR PREFETCHES: 0
L1D MPKI TOTAL: 10.1044 MSHR LATE: 0.00076 PQ LATE: 0 COMMIT LATE: 0 MISSED OPPORTUNITY: 0 UNCOVERED: 0
L1D PREFETCHES SAME FILL-ORIGIN LEVEL: 24415 DIFFERENT FILL-ORIGIN LEVEL: 72362
L1D AVERAGE MISS LATENCY: 263.058 cycles
L1D AVERAGE MISS LATENCY LOAD: 452.776 cycles
L1D AVERAGE MISS LATENCY PREFETCH: 269.953 cycles
L1D AVERAGE MSHR OCCUPANCY: 14.9166
L1D MSHR FULL: 0.908873
L1D RQ	ACCESS:   24275761	FORWARD:          0	MERGED:    8918512	TO_CACHE:   15357248
L1D WQ	ACCESS:   36567205	FORWARD:          1	MERGED:      42755	TO_CACHE:   36524450
L1D PQ	ACCESS:     109918	FORWARD:          0	MERGED:       1385	TO_CACHE:     108533

L1D UNIQUE REGIONS ACCESSED: 0
L1D REGIONS CONFLICTS: 0
L1D Cross Page Prefetch Requests: 1475618
L1D Same Page Prefetch Requests: 8465067
L1D ROI Sum of L1D PQ occupancy: 6259563
L1D PREFETCHES PUSHED FROM L2C: 0
L1I SPEC fills:          0  NON-SPEC fills:          0
L1I Test counter :          0
L1I Leapfrog:          0
L1I MSHR merge:          0
L1I TOTAL     ACCESS:   34781326  HIT:   34781326  MISS:          0  HIT %:        100  MISS %:          0   MPKI: 0
L1I LOAD      TOTAL       ACCESS:   34781326  HIT:   34781326  MISS:          0  HIT %:        100  MISS %:          0   MPKI: 0
L1I LOAD      NON_SPEC    ACCESS:   34781326  HIT:   34781326  MISS:          0  HIT %:        100  MISS %:          0   MPKI: 0
L1I PREFETCH  REQUESTED:          0  ISSUED:          0  USEFUL:          0  USELESS:          0
L1I USEFUL LOAD PREFETCHES:          0 PREFETCH ISSUED TO LOWER LEVEL:          0  ACCURACY: -nan
L1I TIMELY PREFETCHES:          0 LATE PREFETCHES: 0 DROPPED PREFETCHES: 0
L1I COMMIT LATE PREFETCHES: 0 MISSED OPPORTUNITY: 0 LATE IN PQ: 0 UNCOVERED: 0
L1I COMMIT LATE MSHR PREFETCHES: 0
L1I MPKI TOTAL: 0 MSHR LATE: 0 PQ LATE: 0 COMMIT LATE: 0 MISSED OPPORTUNITY: 0 UNCOVERED: 0
L1I PREFETCHES SAME FILL-ORIGIN LEVEL: 0 DIFFERENT FILL-ORIGIN LEVEL: 0
L1I AVERAGE MISS LATENCY: -nan cycles
L1I AVERAGE MISS LATENCY LOAD: -nan cycles
L1I AVERAGE MISS LATENCY PREFETCH: -nan cycles
L1I AVERAGE MSHR OCCUPANCY: 0
L1I MSHR FULL: 0
L1I RQ	ACCESS:   50529334	FORWARD:          0	MERGED:   15748006	TO_CACHE:   34781328

BTB SPEC fills:          0  NON-SPEC fills:          0
BTB Test counter :          0
BTB Leapfrog:          0
BTB MSHR merge:          0
BTB TOTAL     ACCESS:    3122106  HIT:    3122100  MISS:          6  HIT %:    99.9998  MISS %: 0.000192178   MPKI: 3e-05
BTB BRANCH_DIRECT_JUMP	ACCESS:     397756  HIT:     397755  MISS:          1
BTB BRANCH_INDIRECT	ACCESS:          0  HIT:          0  MISS:          0
BTB BRANCH_CONDITIONAL	ACCESS:    2724350  HIT:    2724345  MISS:          5
BTB BRANCH_DIRECT_CALL	ACCESS:          0  HIT:          0  MISS:          0
BTB BRANCH_INDIRECT_CALL	ACCESS:          0  HIT:          0  MISS:          0
BTB BRANCH_RETURN	ACCESS:          0  HIT:          0  MISS:          0
BTB BRANCH_OTHER ACCESS:          0  HIT:          0  MISS:          0

L2C SPEC fills:          0  NON-SPEC fills:      18889
L2C Test counter :    1938756
L2C Leapfrog:          0
L2C MSHR merge:        880
L2C TOTAL     ACCESS:   26763749  HIT:   16879312  MISS:    9884437  HIT %:    63.0678  MISS %:    36.9322   MPKI: 49.4222
L2C LOAD      TOTAL       ACCESS:    2016675  HIT:      45699  MISS:    1970976  HIT %:    2.26606  MISS %:    97.7339   MPKI: 9.85488
L2C LOAD      NON_SPEC    ACCESS:      19539  HIT:        650  MISS:      18889  HIT %:    3.32668  MISS %:    96.6733   MPKI: 0.094445
L2C LOAD      SPEC        ACCESS:    1997136  HIT:      45049  MISS:    1952087  HIT %:    2.25568  MISS %:    97.7443   MPKI: 9.76043
L2C RFO       NON_SPEC    ACCESS:   10948980  HIT:    5036993  MISS:    5911987  HIT %:    46.0042  MISS %:    53.9958   MPKI: 29.5599
L2C PREFETCH  NON_SPEC    ACCESS:      92696  HIT:      44399  MISS:      48297  HIT %:    47.8974  MISS %:    52.1026   MPKI: 0.241485
L2C WRITEBACK NON_SPEC    ACCESS:   10970566  HIT:   10970062  MISS:        504  HIT %:    99.9954  MISS %: 0.00459411   MPKI: 0.00252
L2C CLEAN_EVICTION NON_SPEC    ACCESS:    1944953  HIT:     182281  MISS:    1762672  HIT %:      9.372  MISS %:     90.628   MPKI: 8.81336
L2C COMMIT LOAD NON_SPEC    ACCESS:     175221  HIT:        636  MISS:     174585  HIT %:    0.36297  MISS %:     99.637   MPKI: 0.872925
L2C LOAD TRANSLATION NON_SPEC    ACCESS:     608529  HIT:     593269  MISS:      15260  HIT %:    97.4923  MISS %:    2.50769   MPKI: 0.0763
L2C TRANSLATION FROM L1D PREFETCHER NON_SPEC    ACCESS:       6129  HIT:       5973  MISS:        156  HIT %:    97.4547  MISS %:    2.54528   MPKI: 0.00078
L2C PREFETCH  REQUESTED:          0  ISSUED:          0  USEFUL:      43439  USELESS:       9405
L2C USEFUL LOAD PREFETCHES:      43439 PREFETCH ISSUED TO LOWER LEVEL:      50499  ACCURACY: 86.0195
L2C TIMELY PREFETCHES:      43439 LATE PREFETCHES: 2202 DROPPED PREFETCHES: 0
L2C COMMIT LATE PREFETCHES: 0 MISSED OPPORTUNITY: 0 LATE IN PQ: 0 UNCOVERED: 0
L2C COMMIT LATE MSHR PREFETCHES: 0
L2C MPKI TOTAL: 9.85488 MSHR LATE: 0.01101 PQ LATE: 0 COMMIT LATE: 0 MISSED OPPORTUNITY: 0 UNCOVERED: 0
L2C PREFETCHES SAME FILL-ORIGIN LEVEL: 36842 DIFFERENT FILL-ORIGIN LEVEL: 0
L2C AVERAGE MISS LATENCY: 377.331 cycles
L2C AVERAGE MISS LATENCY LOAD: 406.852 cycles
L2C AVERAGE MISS LATENCY PREFETCH: 531.944 cycles
L2C AVERAGE MSHR OCCUPANCY: 8.45685
L2C MSHR FULL: 0.000238538
L2C RQ	ACCESS:   13755718	FORWARD:          0	MERGED:          0	TO_CACHE:   13755540
L2C WQ	ACCESS:   12915519	FORWARD:        178	MERGED:          0	TO_CACHE:   12915519
L2C PQ	ACCESS:      96237	FORWARD:          0	MERGED:         33	TO_CACHE:      96204

L2C Instructions Evicting Data 0
L2C Translations Evicting Data 15352
L2C Data Evicting Data 6142042
L2C Instructions Evicting Instructions 0
L2C Translations Evicting Instructions 0
L2C Data Evicting Instructions 0
L2C Instructions Evicting Translations 0
L2C Translations Evicting Translations 64
L2C Data Evicting Translations 11716
L2C Dense regions hint from L2: 0
PSCL5 SPEC fills:          0  NON-SPEC fills:          0
PSCL5 Test counter :          0
PSCL5 Leapfrog:          0
PSCL5 MSHR merge:          0
PSCL5 TOTAL     ACCESS:          0  HIT:          0  MISS:          0  HIT %:       -nan  MISS %:       -nan   MPKI: 0
PSCL5 PREFETCH  REQUESTED:          0  ISSUED:          0  USEFUL:          0  USELESS:          0
PSCL5 USEFUL LOAD PREFETCHES:          0 PREFETCH ISSUED TO LOWER LEVEL:          0  ACCURACY: -nan
PSCL5 TIMELY PREFETCHES:          0 LATE PREFETCHES: 0 DROPPED PREFETCHES: 0
PSCL5 COMMIT LATE PREFETCHES: 0 MISSED OPPORTUNITY: 0 LATE IN PQ: 0 UNCOVERED: 0
PSCL5 COMMIT LATE MSHR PREFETCHES: 0
PSCL5 MPKI TOTAL: 0 MSHR LATE: 0 PQ LATE: 0 COMMIT LATE: 0 MISSED OPPORTUNITY: 0 UNCOVERED: 0
PSCL5 PREFETCHES SAME FILL-ORIGIN LEVEL: 0 DIFFERENT FILL-ORIGIN LEVEL: 0

PSCL4 SPEC fills:          0  NON-SPEC fills:          0
PSCL4 Test counter :          0
PSCL4 Leapfrog:          0
PSCL4 MSHR merge:          0
PSCL4 TOTAL     ACCESS:          0  HIT:          0  MISS:          0  HIT %:       -nan  MISS %:       -nan   MPKI: 0
PSCL4 PREFETCH  REQUESTED:          0  ISSUED:          0  USEFUL:          0  USELESS:          0
PSCL4 USEFUL LOAD PREFETCHES:          0 PREFETCH ISSUED TO LOWER LEVEL:          0  ACCURACY: -nan
PSCL4 TIMELY PREFETCHES:          0 LATE PREFETCHES: 0 DROPPED PREFETCHES: 0
PSCL4 COMMIT LATE PREFETCHES: 0 MISSED OPPORTUNITY: 0 LATE IN PQ: 0 UNCOVERED: 0
PSCL4 COMMIT LATE MSHR PREFETCHES: 0
PSCL4 MPKI TOTAL: 0 MSHR LATE: 0 PQ LATE: 0 COMMIT LATE: 0 MISSED OPPORTUNITY: 0 UNCOVERED: 0
PSCL4 PREFETCHES SAME FILL-ORIGIN LEVEL: 0 DIFFERENT FILL-ORIGIN LEVEL: 0

PSCL3 SPEC fills:          0  NON-SPEC fills:          0
PSCL3 Test counter :          0
PSCL3 Leapfrog:          0
PSCL3 MSHR merge:          0
PSCL3 TOTAL     ACCESS:          0  HIT:          0  MISS:          0  HIT %:       -nan  MISS %:       -nan   MPKI: 0
PSCL3 PREFETCH  REQUESTED:          0  ISSUED:          0  USEFUL:          0  USELESS:          0
PSCL3 USEFUL LOAD PREFETCHES:          0 PREFETCH ISSUED TO LOWER LEVEL:          0  ACCURACY: -nan
PSCL3 TIMELY PREFETCHES:          0 LATE PREFETCHES: 0 DROPPED PREFETCHES: 0
PSCL3 COMMIT LATE PREFETCHES: 0 MISSED OPPORTUNITY: 0 LATE IN PQ: 0 UNCOVERED: 0
PSCL3 COMMIT LATE MSHR PREFETCHES: 0
PSCL3 MPKI TOTAL: 0 MSHR LATE: 0 PQ LATE: 0 COMMIT LATE: 0 MISSED OPPORTUNITY: 0 UNCOVERED: 0
PSCL3 PREFETCHES SAME FILL-ORIGIN LEVEL: 0 DIFFERENT FILL-ORIGIN LEVEL: 0

PSCL2 SPEC fills:          0  NON-SPEC fills:          0
PSCL2 Test counter :          0
PSCL2 Leapfrog:          0
PSCL2 MSHR merge:          0
PSCL2 TOTAL     ACCESS:          0  HIT:          0  MISS:          0  HIT %:       -nan  MISS %:       -nan   MPKI: 0
PSCL2 PREFETCH  REQUESTED:          0  ISSUED:          0  USEFUL:          0  USELESS:          0
PSCL2 USEFUL LOAD PREFETCHES:          0 PREFETCH ISSUED TO LOWER LEVEL:          0  ACCURACY: -nan
PSCL2 TIMELY PREFETCHES:          0 LATE PREFETCHES: 0 DROPPED PREFETCHES: 0
PSCL2 COMMIT LATE PREFETCHES: 0 MISSED OPPORTUNITY: 0 LATE IN PQ: 0 UNCOVERED: 0
PSCL2 COMMIT LATE MSHR PREFETCHES: 0
PSCL2 MPKI TOTAL: 0 MSHR LATE: 0 PQ LATE: 0 COMMIT LATE: 0 MISSED OPPORTUNITY: 0 UNCOVERED: 0
PSCL2 PREFETCHES SAME FILL-ORIGIN LEVEL: 0 DIFFERENT FILL-ORIGIN LEVEL: 0

LLC SPEC fills:          0  NON-SPEC fills:      18850
LLC Test counter :    1939377
LLC Leapfrog:          0
LLC MSHR merge:          0
LLC TOTAL     ACCESS:   16013666  HIT:    6212879  MISS:    9800787  HIT %:    38.7974  MISS %:    61.2026   MPKI: 49.0039
LLC LOAD      TOTAL       ACCESS:    1970091  HIT:       2115  MISS:    1967976  HIT %:   0.107355  MISS %:    99.8926   MPKI: 9.83988
LLC LOAD      NON_SPEC    ACCESS:      18878  HIT:         28  MISS:      18850  HIT %:   0.148321  MISS %:    99.8517   MPKI: 0.09425
LLC LOAD      SPEC        ACCESS:    1951213  HIT:       2087  MISS:    1949126  HIT %:   0.106959  MISS %:     99.893   MPKI: 9.74563
LLC RFO       NON_SPEC    ACCESS:    5910701  HIT:      77346  MISS:    5833355  HIT %:    1.30858  MISS %:    98.6914   MPKI: 29.1668
LLC PREFETCH  NON_SPEC    ACCESS:      50497  HIT:       1405  MISS:      49092  HIT %:    2.78234  MISS %:    97.2177   MPKI: 0.24546
LLC WRITEBACK NON_SPEC    ACCESS:    5953657  HIT:    5953318  MISS:        339  HIT %:    99.9943  MISS %: 0.00569398   MPKI: 0.001695
LLC CLEAN_EVICTION NON_SPEC    ACCESS:    1938756  HIT:     178639  MISS:    1760117  HIT %:     9.2141  MISS %:    90.7859   MPKI: 8.80058
LLC COMMIT LOAD NON_SPEC    ACCESS:     174548  HIT:         56  MISS:     174492  HIT %:  0.0320829  MISS %:    99.9679   MPKI: 0.87246
LLC LOAD TRANSLATION NON_SPEC    ACCESS:      15260  HIT:          0  MISS:      15260  HIT %:          0  MISS %:        100   MPKI: 0.0763
LLC TRANSLATION FROM L1D PREFETCHER NON_SPEC    ACCESS:        156  HIT:          0  MISS:        156  HIT %:          0  MISS %:        100   MPKI: 0.00078
LLC PREFETCH  REQUESTED:          0  ISSUED:          0  USEFUL:        895  USELESS:      66174
LLC USEFUL LOAD PREFETCHES:        895 PREFETCH ISSUED TO LOWER LEVEL:      49092  ACCURACY: 1.82311
LLC TIMELY PREFETCHES:        895 LATE PREFETCHES: 0 DROPPED PREFETCHES: 0
LLC COMMIT LATE PREFETCHES: 0 MISSED OPPORTUNITY: 0 LATE IN PQ: 0 UNCOVERED: 0
LLC COMMIT LATE MSHR PREFETCHES: 0
LLC MPKI TOTAL: 9.83988 MSHR LATE: 0 PQ LATE: 0 COMMIT LATE: 0 MISSED OPPORTUNITY: 0 UNCOVERED: 0
LLC PREFETCHES SAME FILL-ORIGIN LEVEL: 0 DIFFERENT FILL-ORIGIN LEVEL: 0
LLC AVERAGE MISS LATENCY: 357.211 cycles
LLC AVERAGE MISS LATENCY LOAD: 385.865 cycles
LLC AVERAGE MISS LATENCY PREFETCH: 526.004 cycles
LLC AVERAGE MSHR OCCUPANCY: 7.88169
LLC MSHR FULL: 0
LLC RQ	ACCESS:    8070765	FORWARD:          0	MERGED:          0	TO_CACHE:    8070759
LLC WQ	ACCESS:    7892413	FORWARD:          8	MERGED:          0	TO_CACHE:    7892413
LLC PQ	ACCESS:      50499	FORWARD:          0	MERGED:          0	TO_CACHE:      50497

LLC Dense regions hint to LLC: 0

RAW hits: 4984224
Loads Generated: 50393892
Loads sent to L1D: 45409668
Stores Generated: 34563858
Stores sent to L1D: 34563860
Major fault: 0 Minor fault: 72955
Allocated PAGES: 72955
Total Load insts: 55380932
Total Non-spec loads: 2253560
Percentage of speculative loads: 95.9308

LeapFrogging counter: 13627063
Commit hits: 11722425 miss: 31852635
Commit hit %: 26.9017 miss %: 73.0983
Commits not translated: 0
Loads retired: 2016995
Stores retired: 34563860
Cache fills: 2016995
L1D response latency: 452.776 cycles
Load retirement latency: 751.6 cycles
OOO test counter: 0
Discarded buffer inserts: 11722425 hits: 199721 hit %: 1.70375
LATENCY_FILL: 280.566 11824162

DRAM Statistics
 CHANNEL 0
 RQ ROW_BUFFER_HIT:     427297  ROW_BUFFER_MISS:    7613034
 DBUS_CONGESTED:         13
 WQ ROW_BUFFER_HIT:    1889065  ROW_BUFFER_MISS:    5923898  FULL:      62149

 AVG_CONGESTED_CYCLE: 7
 All warmup complete: 2
Channel 0 Bank busy for read cycles: 0
Channel 0 Bank busy for write cycles: 0
Channel 0
Rank 0
0banks busy for read cycles: 29532937
0banks busy for write cycles: 27048
1banks busy for read cycles: 32414640
1banks busy for write cycles: 3270295
2banks busy for read cycles: 14780225
2banks busy for write cycles: 2725308
3banks busy for read cycles: 14921727
3banks busy for write cycles: 2547254
4banks busy for read cycles: 56921013
4banks busy for write cycles: 2484542
5banks busy for read cycles: 51208293
5banks busy for write cycles: 2804724
6banks busy for read cycles: 38238313
6banks busy for write cycles: 3046893
7banks busy for read cycles: 33664628
7banks busy for write cycles: 11686831
8banks busy for read cycles: 26944561
8banks busy for write cycles: 143155641

CPU 0 Branch Prediction Accuracy: 97.656% MPKI: 0.36593 Average ROB Occupancy at Mispredict: 274.039
Branch types
NOT_BRANCH: 196877389 98.4387%
BRANCH_DIRECT_JUMP: 397756 0.198878%
BRANCH_INDIRECT: 0 0%
BRANCH_CONDITIONAL: 2724544 1.36227%
BRANCH_DIRECT_CALL: 0 0%
BRANCH_INDIRECT_CALL: 0 0%
BRANCH_RETURN: 0 0%
BRANCH_OTHER: 0 0%

DRAM PAGES: 1048576
Allocated PAGES: 72955
