
*** ChampSim Multicore Out-of-Order Simulator ***

Warmup Instructions: 50000000
Simulation Instructions: 200000000
Number of CPUs: 1
LLC sets: 2048
LLC ways: 16
L0D sets: 16
L0D ways: 2
ROB size: 352
LQ size: 128
SQ size: 72
Secure Berti: OFF
Berti: OFF
Berti Fill: OFF
On commit prefetching: ON
Hit-based filter: ON
Time-guarding: ON
Free-slotting: ON
Leap-frogging: ON
Train prefetcher on L0D bypass: OFF
No translation penalty for prefetchers: OFF
Prefetch to L0D only: OFF
Prefetch to L1D only: OFF
Clean evictions: ON
Commit loads: ON
Commit write: ON
Fill commit loads to L2C, LLC: ON
DRAM IO FREQUENCY: 6400
ROB SIZE: 352
Off-chip DRAM Size: 4096 MB Channels: 1 Width: 64-bit Data Rate: 6400 MT/s
CPU 0 runs /home/sumon/secure_berti/GhostMinion/../../traces/spec/620.omnetpp_s-874B.champsimtrace.xz
.xz
BTB has LRU replacement policy
ITLB has LRU replacement policy
DTLB has LRU replacement policy
STLB has LRU replacement policy
L1I has LRU replacement policy
L0D has LRU replacement policy
History Sets: 8
History Ways: 16
BERTI Size: 16
BERTI Stride Size: 16
L1D has LRU replacement policy
L2C has LRU replacement policy
LLC has LRU replacement policy
Heartbeat CPU 0 instructions: 10000001 cycles: 8125690 heartbeat IPC: 1.23066 cumulative IPC: 1.23066 (Simulation time: 0 hr 0 min 51 sec) 
Heartbeat CPU 0 instructions: 20000000 cycles: 16253212 heartbeat IPC: 1.23039 cumulative IPC: 1.23053 (Simulation time: 0 hr 1 min 42 sec) 
Heartbeat CPU 0 instructions: 30000003 cycles: 24360558 heartbeat IPC: 1.23345 cumulative IPC: 1.2315 (Simulation time: 0 hr 2 min 35 sec) 
Heartbeat CPU 0 instructions: 40000000 cycles: 32492725 heartbeat IPC: 1.22968 cumulative IPC: 1.23104 (Simulation time: 0 hr 3 min 31 sec) 
Heartbeat CPU 0 instructions: 50000000 cycles: 40631238 heartbeat IPC: 1.22873 cumulative IPC: 1.23058 (Simulation time: 0 hr 4 min 27 sec) 

Warmup complete CPU 0 instructions: 50000004 cycles: 40631239 (Simulation time: 0 hr 4 min 27 sec) 

Heartbeat CPU 0 instructions: 60000001 cycles: 81241134 heartbeat IPC: 0.246245 cumulative IPC: 0.246245 (Simulation time: 0 hr 5 min 33 sec) 
Heartbeat CPU 0 instructions: 70000001 cycles: 121510056 heartbeat IPC: 0.24833 cumulative IPC: 0.247284 (Simulation time: 0 hr 6 min 40 sec) 
Heartbeat CPU 0 instructions: 80000002 cycles: 162010562 heartbeat IPC: 0.246911 cumulative IPC: 0.247159 (Simulation time: 0 hr 7 min 47 sec) 
Heartbeat CPU 0 instructions: 90000002 cycles: 201923920 heartbeat IPC: 0.250543 cumulative IPC: 0.247996 (Simulation time: 0 hr 8 min 54 sec) 
Heartbeat CPU 0 instructions: 100000000 cycles: 242886553 heartbeat IPC: 0.244125 cumulative IPC: 0.247212 (Simulation time: 0 hr 10 min 0 sec) 
Heartbeat CPU 0 instructions: 110000000 cycles: 282997057 heartbeat IPC: 0.249311 cumulative IPC: 0.24756 (Simulation time: 0 hr 11 min 5 sec) 
Heartbeat CPU 0 instructions: 120000000 cycles: 323465102 heartbeat IPC: 0.247109 cumulative IPC: 0.247495 (Simulation time: 0 hr 12 min 10 sec) 
Heartbeat CPU 0 instructions: 130000000 cycles: 364113994 heartbeat IPC: 0.246009 cumulative IPC: 0.247308 (Simulation time: 0 hr 13 min 16 sec) 
Heartbeat CPU 0 instructions: 140000001 cycles: 404553556 heartbeat IPC: 0.247283 cumulative IPC: 0.247306 (Simulation time: 0 hr 14 min 20 sec) 
Heartbeat CPU 0 instructions: 150000002 cycles: 445182340 heartbeat IPC: 0.246131 cumulative IPC: 0.247188 (Simulation time: 0 hr 15 min 25 sec) 
Heartbeat CPU 0 instructions: 160000000 cycles: 486066931 heartbeat IPC: 0.244591 cumulative IPC: 0.246949 (Simulation time: 0 hr 16 min 23 sec) 
Heartbeat CPU 0 instructions: 170000000 cycles: 526226346 heartbeat IPC: 0.249008 cumulative IPC: 0.247119 (Simulation time: 0 hr 17 min 19 sec) 
Heartbeat CPU 0 instructions: 180000000 cycles: 566739605 heartbeat IPC: 0.246833 cumulative IPC: 0.247097 (Simulation time: 0 hr 18 min 14 sec) 
Heartbeat CPU 0 instructions: 190000003 cycles: 607357775 heartbeat IPC: 0.246195 cumulative IPC: 0.247033 (Simulation time: 0 hr 19 min 7 sec) 
Heartbeat CPU 0 instructions: 200000000 cycles: 647763200 heartbeat IPC: 0.247491 cumulative IPC: 0.247063 (Simulation time: 0 hr 19 min 56 sec) 
Heartbeat CPU 0 instructions: 210000000 cycles: 688373844 heartbeat IPC: 0.246241 cumulative IPC: 0.247012 (Simulation time: 0 hr 20 min 45 sec) 
Heartbeat CPU 0 instructions: 220000000 cycles: 728616604 heartbeat IPC: 0.248492 cumulative IPC: 0.247098 (Simulation time: 0 hr 21 min 32 sec) 
Heartbeat CPU 0 instructions: 230000002 cycles: 768819162 heartbeat IPC: 0.24874 cumulative IPC: 0.247189 (Simulation time: 0 hr 22 min 24 sec) 
Heartbeat CPU 0 instructions: 240000001 cycles: 809529164 heartbeat IPC: 0.24564 cumulative IPC: 0.247107 (Simulation time: 0 hr 23 min 20 sec) 
Heartbeat CPU 0 instructions: 250000000 cycles: 850093221 heartbeat IPC: 0.246524 cumulative IPC: 0.247078 (Simulation time: 0 hr 24 min 16 sec) 
Finished CPU 0 instructions: 200000000 cycles: 809461983 cumulative IPC: 0.247078 (Simulation time: 0 hr 24 min 16 sec) 
 Instruction ID: 250000019

ChampSim completed all CPUs

Region of Interest Statistics

CPU 0 cumulative IPC: 0.247078 instructions: 200000000 cycles: 809461983
ITLB SPEC fills:          0  NON-SPEC fills:          0
ITLB Test counter :          0
ITLB Leapfrog:          0
ITLB MSHR merge:          0
ITLB TOTAL     ACCESS:   32902690  HIT:   32585329  MISS:     317361  HIT %:    99.0355  MISS %:   0.964544   MPKI: 1.58681
ITLB LOAD TRANSLATION NON_SPEC    ACCESS:   32902690  HIT:   32585329  MISS:     317361  HIT %:    99.0355  MISS %:   0.964544   MPKI: 1.58681
ITLB PREFETCH  REQUESTED:          0  ISSUED:          0  USEFUL:          0  USELESS:          0
ITLB USEFUL LOAD PREFETCHES:          0 PREFETCH ISSUED TO LOWER LEVEL:          0  ACCURACY: -nan
ITLB TIMELY PREFETCHES:          0 LATE PREFETCHES: 0 DROPPED PREFETCHES: 0
ITLB COMMIT LATE PREFETCHES: 0 MISSED OPPORTUNITY: 0 LATE IN PQ: 0 UNCOVERED: 0
ITLB COMMIT LATE MSHR PREFETCHES: 0
ITLB MPKI TOTAL: 0 MSHR LATE: 0 PQ LATE: 0 COMMIT LATE: 0 MISSED OPPORTUNITY: 0 UNCOVERED: 0
ITLB PREFETCHES SAME FILL-ORIGIN LEVEL: 0 DIFFERENT FILL-ORIGIN LEVEL: 0
ITLB AVERAGE MISS LATENCY: 10.4648 cycles
ITLB AVERAGE MISS LATENCY LOAD: -nan cycles
ITLB AVERAGE MISS LATENCY PREFETCH: -nan cycles
ITLB AVERAGE MSHR OCCUPANCY: 0.00937972
ITLB MSHR FULL: 0
ITLB RQ	ACCESS:   37061675	FORWARD:          0	MERGED:    4062392	TO_CACHE:   32999283

DTLB SPEC fills:          0  NON-SPEC fills:          0
DTLB Test counter :          0
DTLB Leapfrog:          0
DTLB MSHR merge:          0
DTLB TOTAL     ACCESS:   81610152  HIT:   77798032  MISS:    3812120  HIT %:    95.3289  MISS %:    4.67113   MPKI: 19.0606
DTLB LOAD TRANSLATION NON_SPEC    ACCESS:   81610152  HIT:   77798032  MISS:    3812120  HIT %:    95.3289  MISS %:    4.67113   MPKI: 19.0606
DTLB PREFETCH  REQUESTED:          0  ISSUED:          0  USEFUL:          0  USELESS:          0
DTLB USEFUL LOAD PREFETCHES:          0 PREFETCH ISSUED TO LOWER LEVEL:          0  ACCURACY: -nan
DTLB TIMELY PREFETCHES:          0 LATE PREFETCHES: 0 DROPPED PREFETCHES: 0
DTLB COMMIT LATE PREFETCHES: 0 MISSED OPPORTUNITY: 0 LATE IN PQ: 0 UNCOVERED: 0
DTLB COMMIT LATE MSHR PREFETCHES: 0
DTLB MPKI TOTAL: 0 MSHR LATE: 0 PQ LATE: 0 COMMIT LATE: 0 MISSED OPPORTUNITY: 0 UNCOVERED: 0
DTLB PREFETCHES SAME FILL-ORIGIN LEVEL: 0 DIFFERENT FILL-ORIGIN LEVEL: 0
DTLB AVERAGE MISS LATENCY: 37.1631 cycles
DTLB AVERAGE MISS LATENCY LOAD: -nan cycles
DTLB AVERAGE MISS LATENCY PREFETCH: -nan cycles
DTLB AVERAGE MSHR OCCUPANCY: 0.112438
DTLB MSHR FULL: 1.79699e-05
DTLB RQ	ACCESS:   92223500	FORWARD:          0	MERGED:   10532849	TO_CACHE:   81690651

STLB SPEC fills:          0  NON-SPEC fills:          0
STLB Test counter :          0
STLB Leapfrog:          0
STLB MSHR merge:          0
STLB TOTAL     ACCESS:    4317764  HIT:    3443905  MISS:     873859  HIT %:    79.7613  MISS %:    20.2387   MPKI: 4.3693
STLB LOAD TRANSLATION NON_SPEC    ACCESS:    4129481  HIT:    3289928  MISS:     839553  HIT %:    79.6693  MISS %:    20.3307   MPKI: 4.19777
STLB TRANSLATION FROM L1D PREFETCHER NON_SPEC    ACCESS:     188283  HIT:     153977  MISS:      34306  HIT %:    81.7796  MISS %:    18.2204   MPKI: 0.17153
STLB PREFETCH  REQUESTED:          0  ISSUED:          0  USEFUL:      25722  USELESS:       8566
STLB USEFUL LOAD PREFETCHES:      25722 PREFETCH ISSUED TO LOWER LEVEL:          0  ACCURACY: inf
STLB TIMELY PREFETCHES:      25722 LATE PREFETCHES: 13 DROPPED PREFETCHES: 68646
STLB COMMIT LATE PREFETCHES: 0 MISSED OPPORTUNITY: 0 LATE IN PQ: 0 UNCOVERED: 0
STLB COMMIT LATE MSHR PREFETCHES: 0
STLB MPKI TOTAL: 0 MSHR LATE: 6.5e-05 PQ LATE: 0 COMMIT LATE: 0 MISSED OPPORTUNITY: 0 UNCOVERED: 0
STLB PREFETCHES SAME FILL-ORIGIN LEVEL: 0 DIFFERENT FILL-ORIGIN LEVEL: 0
STLB AVERAGE MISS LATENCY: 128.604 cycles
STLB AVERAGE MISS LATENCY LOAD: -nan cycles
STLB AVERAGE MISS LATENCY PREFETCH: -nan cycles
STLB AVERAGE MSHR OCCUPANCY: 0.140836
STLB MSHR FULL: 0
STLB RQ	ACCESS:    4463647	FORWARD:          0	MERGED:      72845	TO_CACHE:    4390802

STLB Hit, L1D data hit: 0
STLB Hit, L2C data hit: 0
STLB Hit, LLC data hit: 0
STLB Hit, LLC data miss: 0
STLB STLB hints to L2: 0
L0D SPEC fills:   22984919  NON-SPEC fills:          0
L0D TimeGuard Request with older TS:     303031 Restricted eviction:     191730 read:     274543
L0D Test counter :          0
L0D Leapfrog:          0
L0D MSHR merge:    1036412
L0D TOTAL     ACCESS:   54068760  HIT:    6567370  MISS:   47501390  HIT %:    12.1463  MISS %:    87.8537   MPKI: 237.507
L0D LOAD      TOTAL       ACCESS:   54068760  HIT:    6567370  MISS:   47501390  HIT %:    12.1463  MISS %:    87.8537   MPKI: 237.507
L0D LOAD      NON_SPEC    ACCESS:   24538328  HIT:     213579  MISS:   24324749  HIT %:   0.870389  MISS %:    99.1296   MPKI: 121.624
L0D LOAD      SPEC        ACCESS:   29530432  HIT:    6353791  MISS:   23176641  HIT %:    21.5161  MISS %:    78.4839   MPKI: 115.883
L0D PREFETCH  REQUESTED:          0  ISSUED:          0  USEFUL:          0  USELESS:          0
L0D USEFUL LOAD PREFETCHES:          0 PREFETCH ISSUED TO LOWER LEVEL:          0  ACCURACY: -nan
L0D TIMELY PREFETCHES:          0 LATE PREFETCHES: 0 DROPPED PREFETCHES: 0
L0D COMMIT LATE PREFETCHES: 0 MISSED OPPORTUNITY: 0 LATE IN PQ: 0 UNCOVERED: 0
L0D COMMIT LATE MSHR PREFETCHES: 0
L0D MPKI TOTAL: 242.689 MSHR LATE: 0 PQ LATE: 0 COMMIT LATE: 0 MISSED OPPORTUNITY: 0 UNCOVERED: 0
L0D PREFETCHES SAME FILL-ORIGIN LEVEL: 0 DIFFERENT FILL-ORIGIN LEVEL: 0
L0D AVERAGE MISS LATENCY: 11.9147 cycles
L0D AVERAGE MISS LATENCY LOAD: 11.9147 cycles
L0D AVERAGE MISS LATENCY PREFETCH: -nan cycles
L0D AVERAGE MSHR OCCUPANCY: 0.552028
L0D MSHR FULL: 5.82128e-05
L0D RQ	ACCESS:   64229826	FORWARD:          0	MERGED:    9124656	TO_CACHE:   55105170
L0D WQ	ACCESS:   37118330	FORWARD:          0	MERGED:          0	TO_CACHE:   37118330

L1D SPEC fills:          0  NON-SPEC fills:     624869
L1D Test counter :    2192304
L1D Leapfrog:          0
L1D MSHR merge:      17990
L1D TOTAL     ACCESS:   87783975  HIT:   81312091  MISS:    6471884  HIT %:    92.6275  MISS %:    7.37251   MPKI: 32.3594
L1D LOAD      TOTAL       ACCESS:   47483400  HIT:   44161505  MISS:    3321895  HIT %:    93.0041  MISS %:    6.99591   MPKI: 16.6095
L1D LOAD      NON_SPEC    ACCESS:   24317306  HIT:   23692437  MISS:     624869  HIT %:    97.4304  MISS %:    2.56965   MPKI: 3.12434
L1D LOAD      SPEC        ACCESS:   23166094  HIT:   20469068  MISS:    2697026  HIT %:    88.3579  MISS %:    11.6421   MPKI: 13.4851
L1D RFO       NON_SPEC    ACCESS:   36045461  HIT:   35564386  MISS:     481075  HIT %:    98.6654  MISS %:    1.33463   MPKI: 2.40537
L1D PREFETCH  NON_SPEC    ACCESS:      32807  HIT:      26344  MISS:       6463  HIT %:    80.2999  MISS %:    19.7001   MPKI: 0.032315
L1D COMMIT LOAD NON_SPEC    ACCESS:    1514327  HIT:    1500321  MISS:      14006  HIT %:    99.0751  MISS %:   0.924899   MPKI: 0.07003
L1D COMMIT WRITE NON_SPEC    ACCESS:    2707980  HIT:      59535  MISS:    2648445  HIT %:     2.1985  MISS %:    97.8015   MPKI: 13.2422
L1D PREFETCH  REQUESTED:     347724  ISSUED:     347335  USEFUL:       3586  USELESS:       2876
L1D USEFUL LOAD PREFETCHES:       3586 PREFETCH ISSUED TO LOWER LEVEL:     221422  ACCURACY: 1.61953
L1D TIMELY PREFETCHES:       3586 LATE PREFETCHES: 0 DROPPED PREFETCHES: 85615
L1D COMMIT LATE PREFETCHES: 0 MISSED OPPORTUNITY: 0 LATE IN PQ: 0 UNCOVERED: 0
L1D COMMIT LATE MSHR PREFETCHES: 0
L1D MPKI TOTAL: 16.6994 MSHR LATE: 0 PQ LATE: 0 COMMIT LATE: 0 MISSED OPPORTUNITY: 0 UNCOVERED: 0
L1D PREFETCHES SAME FILL-ORIGIN LEVEL: 6463 DIFFERENT FILL-ORIGIN LEVEL: 214959
L1D AVERAGE MISS LATENCY: 57.3728 cycles
L1D AVERAGE MISS LATENCY LOAD: 97.7147 cycles
L1D AVERAGE MISS LATENCY PREFETCH: 139.085 cycles
L1D AVERAGE MSHR OCCUPANCY: 0.234825
L1D MSHR FULL: 0
L1D RQ	ACCESS:   49378324	FORWARD:          0	MERGED:     315963	TO_CACHE:   49016922
L1D WQ	ACCESS:   39827930	FORWARD:      45439	MERGED:     344985	TO_CACHE:   39482945
L1D PQ	ACCESS:     347335	FORWARD:          0	MERGED:      13169	TO_CACHE:     334166

L1D UNIQUE REGIONS ACCESSED: 0
L1D REGIONS CONFLICTS: 0
L1D Cross Page Prefetch Requests: 331160
L1D Same Page Prefetch Requests: 97371
L1D ROI Sum of L1D PQ occupancy: 23780490
L1D PREFETCHES PUSHED FROM L2C: 0
L1I SPEC fills:          0  NON-SPEC fills:          0
L1I Test counter :          0
L1I Leapfrog:          0
L1I MSHR merge:      30133
L1I TOTAL     ACCESS:   37031543  HIT:   36952535  MISS:      79008  HIT %:    99.7866  MISS %:   0.213353   MPKI: 0.39504
L1I LOAD      TOTAL       ACCESS:   37031543  HIT:   36952535  MISS:      79008  HIT %:    99.7866  MISS %:   0.213353   MPKI: 0.39504
L1I LOAD      NON_SPEC    ACCESS:   37031543  HIT:   36952535  MISS:      79008  HIT %:    99.7866  MISS %:   0.213353   MPKI: 0.39504
L1I PREFETCH  REQUESTED:          0  ISSUED:          0  USEFUL:          0  USELESS:          0
L1I USEFUL LOAD PREFETCHES:          0 PREFETCH ISSUED TO LOWER LEVEL:          0  ACCURACY: -nan
L1I TIMELY PREFETCHES:          0 LATE PREFETCHES: 0 DROPPED PREFETCHES: 0
L1I COMMIT LATE PREFETCHES: 0 MISSED OPPORTUNITY: 0 LATE IN PQ: 0 UNCOVERED: 0
L1I COMMIT LATE MSHR PREFETCHES: 0
L1I MPKI TOTAL: 0.545705 MSHR LATE: 0 PQ LATE: 0 COMMIT LATE: 0 MISSED OPPORTUNITY: 0 UNCOVERED: 0
L1I PREFETCHES SAME FILL-ORIGIN LEVEL: 0 DIFFERENT FILL-ORIGIN LEVEL: 0
L1I AVERAGE MISS LATENCY: 26.5883 cycles
L1I AVERAGE MISS LATENCY LOAD: 26.5883 cycles
L1I AVERAGE MISS LATENCY PREFETCH: -nan cycles
L1I AVERAGE MSHR OCCUPANCY: 0.00328606
L1I MSHR FULL: 0
L1I RQ	ACCESS:   56948885	FORWARD:          0	MERGED:   19887210	TO_CACHE:   37061675

BTB SPEC fills:          0  NON-SPEC fills:          0
BTB Test counter :          0
BTB Leapfrog:          0
BTB MSHR merge:          0
BTB TOTAL     ACCESS:   32188164  HIT:   30296058  MISS:    1892106  HIT %:    94.1217  MISS %:    5.87827   MPKI: 9.46053
BTB BRANCH_DIRECT_JUMP	ACCESS:    2276304  HIT:    2276179  MISS:        125
BTB BRANCH_INDIRECT	ACCESS:     671328  HIT:     585871  MISS:      85457
BTB BRANCH_CONDITIONAL	ACCESS:   17350102  HIT:   17349618  MISS:        484
BTB BRANCH_DIRECT_CALL	ACCESS:    3559126  HIT:    3558870  MISS:        256
BTB BRANCH_INDIRECT_CALL	ACCESS:    2386088  HIT:    2378106  MISS:       7982
BTB BRANCH_RETURN	ACCESS:    5945216  HIT:    4147414  MISS:    1797802
BTB BRANCH_OTHER ACCESS:          0  HIT:          0  MISS:          0

L2C SPEC fills:          0  NON-SPEC fills:     377896
L2C Test counter :    1825728
L2C Leapfrog:          0
L2C MSHR merge:        534
L2C TOTAL     ACCESS:   11705406  HIT:    6755690  MISS:    4949716  HIT %:    57.7143  MISS %:    42.2857   MPKI: 24.7486
L2C LOAD      TOTAL       ACCESS:    3400826  HIT:    1208839  MISS:    2191987  HIT %:    35.5455  MISS %:    64.4545   MPKI: 10.9599
L2C LOAD      NON_SPEC    ACCESS:     703866  HIT:     313024  MISS:     390842  HIT %:    44.4721  MISS %:    55.5279   MPKI: 1.95421
L2C LOAD      SPEC        ACCESS:    2696960  HIT:     895815  MISS:    1801145  HIT %:    33.2157  MISS %:    66.7843   MPKI: 9.00572
L2C RFO       NON_SPEC    ACCESS:     480990  HIT:     150275  MISS:     330715  HIT %:    31.2429  MISS %:    68.7571   MPKI: 1.65358
L2C PREFETCH  NON_SPEC    ACCESS:     219790  HIT:      51964  MISS:     167826  HIT %:    23.6426  MISS %:    76.3574   MPKI: 0.83913
L2C WRITEBACK NON_SPEC    ACCESS:     684967  HIT:     684072  MISS:        895  HIT %:    99.8693  MISS %:   0.130663   MPKI: 0.004475
L2C CLEAN_EVICTION NON_SPEC    ACCESS:    2192302  HIT:     399001  MISS:    1793301  HIT %:    18.2001  MISS %:    81.7999   MPKI: 8.9665
L2C COMMIT LOAD NON_SPEC    ACCESS:      14006  HIT:       7938  MISS:       6068  HIT %:    56.6757  MISS %:    43.3243   MPKI: 0.03034
L2C LOAD TRANSLATION NON_SPEC    ACCESS:    4197700  HIT:    3744968  MISS:     452732  HIT %:    89.2148  MISS %:    10.7852   MPKI: 2.26366
L2C TRANSLATION FROM L1D PREFETCHER NON_SPEC    ACCESS:     514825  HIT:     508633  MISS:       6192  HIT %:    98.7973  MISS %:    1.20274   MPKI: 0.03096
L2C PREFETCH  REQUESTED:          0  ISSUED:          0  USEFUL:      60658  USELESS:     113087
L2C USEFUL LOAD PREFETCHES:      60658 PREFETCH ISSUED TO LOWER LEVEL:     168361  ACCURACY: 36.0285
L2C TIMELY PREFETCHES:      60658 LATE PREFETCHES: 535 DROPPED PREFETCHES: 0
L2C COMMIT LATE PREFETCHES: 0 MISSED OPPORTUNITY: 0 LATE IN PQ: 0 UNCOVERED: 0
L2C COMMIT LATE MSHR PREFETCHES: 0
L2C MPKI TOTAL: 10.9599 MSHR LATE: 0.002675 PQ LATE: 0 COMMIT LATE: 0 MISSED OPPORTUNITY: 0 UNCOVERED: 0
L2C PREFETCHES SAME FILL-ORIGIN LEVEL: 164270 DIFFERENT FILL-ORIGIN LEVEL: 0
L2C AVERAGE MISS LATENCY: 80.0488 cycles
L2C AVERAGE MISS LATENCY LOAD: 130.572 cycles
L2C AVERAGE MISS LATENCY PREFETCH: 190.388 cycles
L2C AVERAGE MSHR OCCUPANCY: 0.393527
L2C MSHR FULL: 0
L2C RQ	ACCESS:    8608509	FORWARD:          0	MERGED:          0	TO_CACHE:    8608347
L2C WQ	ACCESS:    2877271	FORWARD:        162	MERGED:          0	TO_CACHE:    2877271
L2C PQ	ACCESS:     221422	FORWARD:          0	MERGED:          0	TO_CACHE:     221422

L2C Instructions Evicting Data 10741
L2C Translations Evicting Data 388949
L2C Data Evicting Data 750261
L2C Instructions Evicting Instructions 661
L2C Translations Evicting Instructions 1562
L2C Data Evicting Instructions 3607
L2C Instructions Evicting Translations 1544
L2C Translations Evicting Translations 68413
L2C Data Evicting Translations 128637
L2C Dense regions hint from L2: 0
PSCL5 SPEC fills:          0  NON-SPEC fills:          0
PSCL5 Test counter :          0
PSCL5 Leapfrog:          0
PSCL5 MSHR merge:          0
PSCL5 TOTAL     ACCESS:          0  HIT:          0  MISS:          0  HIT %:       -nan  MISS %:       -nan   MPKI: 0
PSCL5 PREFETCH  REQUESTED:          0  ISSUED:          0  USEFUL:          0  USELESS:          0
PSCL5 USEFUL LOAD PREFETCHES:          0 PREFETCH ISSUED TO LOWER LEVEL:          0  ACCURACY: -nan
PSCL5 TIMELY PREFETCHES:          0 LATE PREFETCHES: 0 DROPPED PREFETCHES: 0
PSCL5 COMMIT LATE PREFETCHES: 0 MISSED OPPORTUNITY: 0 LATE IN PQ: 0 UNCOVERED: 0
PSCL5 COMMIT LATE MSHR PREFETCHES: 0
PSCL5 MPKI TOTAL: 0 MSHR LATE: 0 PQ LATE: 0 COMMIT LATE: 0 MISSED OPPORTUNITY: 0 UNCOVERED: 0
PSCL5 PREFETCHES SAME FILL-ORIGIN LEVEL: 0 DIFFERENT FILL-ORIGIN LEVEL: 0

PSCL4 SPEC fills:          0  NON-SPEC fills:          0
PSCL4 Test counter :          0
PSCL4 Leapfrog:          0
PSCL4 MSHR merge:          0
PSCL4 TOTAL     ACCESS:          0  HIT:          0  MISS:          0  HIT %:       -nan  MISS %:       -nan   MPKI: 0
PSCL4 PREFETCH  REQUESTED:          0  ISSUED:          0  USEFUL:          0  USELESS:          0
PSCL4 USEFUL LOAD PREFETCHES:          0 PREFETCH ISSUED TO LOWER LEVEL:          0  ACCURACY: -nan
PSCL4 TIMELY PREFETCHES:          0 LATE PREFETCHES: 0 DROPPED PREFETCHES: 0
PSCL4 COMMIT LATE PREFETCHES: 0 MISSED OPPORTUNITY: 0 LATE IN PQ: 0 UNCOVERED: 0
PSCL4 COMMIT LATE MSHR PREFETCHES: 0
PSCL4 MPKI TOTAL: 0 MSHR LATE: 0 PQ LATE: 0 COMMIT LATE: 0 MISSED OPPORTUNITY: 0 UNCOVERED: 0
PSCL4 PREFETCHES SAME FILL-ORIGIN LEVEL: 0 DIFFERENT FILL-ORIGIN LEVEL: 0

PSCL3 SPEC fills:          0  NON-SPEC fills:          0
PSCL3 Test counter :          0
PSCL3 Leapfrog:          0
PSCL3 MSHR merge:          0
PSCL3 TOTAL     ACCESS:          0  HIT:          0  MISS:          0  HIT %:       -nan  MISS %:       -nan   MPKI: 0
PSCL3 PREFETCH  REQUESTED:          0  ISSUED:          0  USEFUL:          0  USELESS:          0
PSCL3 USEFUL LOAD PREFETCHES:          0 PREFETCH ISSUED TO LOWER LEVEL:          0  ACCURACY: -nan
PSCL3 TIMELY PREFETCHES:          0 LATE PREFETCHES: 0 DROPPED PREFETCHES: 0
PSCL3 COMMIT LATE PREFETCHES: 0 MISSED OPPORTUNITY: 0 LATE IN PQ: 0 UNCOVERED: 0
PSCL3 COMMIT LATE MSHR PREFETCHES: 0
PSCL3 MPKI TOTAL: 0 MSHR LATE: 0 PQ LATE: 0 COMMIT LATE: 0 MISSED OPPORTUNITY: 0 UNCOVERED: 0
PSCL3 PREFETCHES SAME FILL-ORIGIN LEVEL: 0 DIFFERENT FILL-ORIGIN LEVEL: 0

PSCL2 SPEC fills:          0  NON-SPEC fills:          0
PSCL2 Test counter :          0
PSCL2 Leapfrog:          0
PSCL2 MSHR merge:          0
PSCL2 TOTAL     ACCESS:          0  HIT:          0  MISS:          0  HIT %:       -nan  MISS %:       -nan   MPKI: 0
PSCL2 PREFETCH  REQUESTED:          0  ISSUED:          0  USEFUL:          0  USELESS:          0
PSCL2 USEFUL LOAD PREFETCHES:          0 PREFETCH ISSUED TO LOWER LEVEL:          0  ACCURACY: -nan
PSCL2 TIMELY PREFETCHES:          0 LATE PREFETCHES: 0 DROPPED PREFETCHES: 0
PSCL2 COMMIT LATE PREFETCHES: 0 MISSED OPPORTUNITY: 0 LATE IN PQ: 0 UNCOVERED: 0
PSCL2 COMMIT LATE MSHR PREFETCHES: 0
PSCL2 MPKI TOTAL: 0 MSHR LATE: 0 PQ LATE: 0 COMMIT LATE: 0 MISSED OPPORTUNITY: 0 UNCOVERED: 0
PSCL2 PREFETCHES SAME FILL-ORIGIN LEVEL: 0 DIFFERENT FILL-ORIGIN LEVEL: 0

LLC SPEC fills:          0  NON-SPEC fills:     251510
LLC Test counter :    1423270
LLC Leapfrog:          0
LLC MSHR merge:          0
LLC TOTAL     ACCESS:    5440712  HIT:    1968304  MISS:    3472408  HIT %:    36.1773  MISS %:    63.8227   MPKI: 17.362
LLC LOAD      TOTAL       ACCESS:    2191445  HIT:     576885  MISS:    1614560  HIT %:    26.3244  MISS %:    73.6756   MPKI: 8.0728
LLC LOAD      NON_SPEC    ACCESS:     390837  HIT:     135804  MISS:     255033  HIT %:     34.747  MISS %:     65.253   MPKI: 1.27517
LLC LOAD      SPEC        ACCESS:    1800608  HIT:     441081  MISS:    1359527  HIT %:    24.4962  MISS %:    75.5038   MPKI: 6.79763
LLC RFO       NON_SPEC    ACCESS:     330712  HIT:     165839  MISS:     164873  HIT %:     50.146  MISS %:     49.854   MPKI: 0.824365
LLC PREFETCH  NON_SPEC    ACCESS:     168361  HIT:       6193  MISS:     162168  HIT %:    3.67841  MISS %:    96.3216   MPKI: 0.81084
LLC WRITEBACK NON_SPEC    ACCESS:     459476  HIT:     458461  MISS:       1015  HIT %:    99.7791  MISS %:   0.220904   MPKI: 0.005075
LLC CLEAN_EVICTION NON_SPEC    ACCESS:    1825727  HIT:     448016  MISS:    1377711  HIT %:     24.539  MISS %:     75.461   MPKI: 6.88856
LLC COMMIT LOAD NON_SPEC    ACCESS:       6067  HIT:       3426  MISS:       2641  HIT %:    56.4694  MISS %:    43.5306   MPKI: 0.013205
LLC LOAD TRANSLATION NON_SPEC    ACCESS:     452732  HIT:     306713  MISS:     146019  HIT %:    67.7471  MISS %:    32.2529   MPKI: 0.730095
LLC TRANSLATION FROM L1D PREFETCHER NON_SPEC    ACCESS:       6192  HIT:       2771  MISS:       3421  HIT %:    44.7513  MISS %:    55.2487   MPKI: 0.017105
LLC PREFETCH  REQUESTED:          0  ISSUED:          0  USEFUL:       7168  USELESS:     157200
LLC USEFUL LOAD PREFETCHES:       7168 PREFETCH ISSUED TO LOWER LEVEL:     162168  ACCURACY: 4.42011
LLC TIMELY PREFETCHES:       7168 LATE PREFETCHES: 0 DROPPED PREFETCHES: 0
LLC COMMIT LATE PREFETCHES: 0 MISSED OPPORTUNITY: 0 LATE IN PQ: 0 UNCOVERED: 0
LLC COMMIT LATE MSHR PREFETCHES: 0
LLC MPKI TOTAL: 8.0728 MSHR LATE: 0 PQ LATE: 0 COMMIT LATE: 0 MISSED OPPORTUNITY: 0 UNCOVERED: 0
LLC PREFETCHES SAME FILL-ORIGIN LEVEL: 0 DIFFERENT FILL-ORIGIN LEVEL: 0
LLC AVERAGE MISS LATENCY: 91.5286 cycles
LLC AVERAGE MISS LATENCY LOAD: 146.557 cycles
LLC AVERAGE MISS LATENCY PREFETCH: 166.603 cycles
LLC AVERAGE MSHR OCCUPANCY: 0.368659
LLC MSHR FULL: 0
LLC RQ	ACCESS:    2987159	FORWARD:          0	MERGED:          0	TO_CACHE:    2987148
LLC WQ	ACCESS:    2285204	FORWARD:         11	MERGED:          0	TO_CACHE:    2285204
LLC PQ	ACCESS:     168361	FORWARD:          0	MERGED:          0	TO_CACHE:     168361

LLC Dense regions hint to LLC: 0

RAW hits: 3218923
Loads Generated: 67448749
Loads sent to L1D: 64229826
Stores Generated: 37118330
Stores sent to L1D: 37118330
Major fault: 0 Minor fault: 47401
Allocated PAGES: 47401
Total Load insts: 79556782
Total Non-spec loads: 28067571
Percentage of speculative loads: 64.7201

LeapFrogging counter: 1293
Commit hits: 22791718 miss: 16844816
Commit hit %: 57.5018 miss %: 42.4982
Commits not translated: 0
Loads retired: 3321893
Stores retired: 37118330
Cache fills: 3321895
L1D response latency: 97.7147 cycles
Load retirement latency: 179.129 cycles
OOO test counter: 0
Discarded buffer inserts: 22791718 hits: 19090 hit %: 0.0837585
LATENCY_FILL: 20.762 3094354

DRAM Statistics
 CHANNEL 0
 RQ ROW_BUFFER_HIT:     191408  ROW_BUFFER_MISS:    1902261
 DBUS_CONGESTED:       1144
 WQ ROW_BUFFER_HIT:     289508  ROW_BUFFER_MISS:    1381008  FULL:          0

 AVG_CONGESTED_CYCLE: 4
 All warmup complete: 2
Channel 0 Bank busy for read cycles: 0
Channel 0 Bank busy for write cycles: 0
Channel 0
Rank 0
0banks busy for read cycles: 396572655
0banks busy for write cycles: 696507
1banks busy for read cycles: 168449148
1banks busy for write cycles: 114451917
2banks busy for read cycles: 38158972
2banks busy for write cycles: 45700495
3banks busy for read cycles: 10817262
3banks busy for write cycles: 17667999
4banks busy for read cycles: 3667034
4banks busy for write cycles: 7147530
5banks busy for read cycles: 404433
5banks busy for write cycles: 3229360
6banks busy for read cycles: 118709
6banks busy for write cycles: 1522628
7banks busy for read cycles: 33186
7banks busy for write cycles: 619492
8banks busy for read cycles: 7692
8banks busy for write cycles: 196965

CPU 0 Branch Prediction Accuracy: 98.2082% MPKI: 3.72743 Average ROB Occupancy at Mispredict: 33.8422
Branch types
NOT_BRANCH: 158393545 79.1968%
BRANCH_DIRECT_JUMP: 2276304 1.13815%
BRANCH_INDIRECT: 671328 0.335664%
BRANCH_CONDITIONAL: 26768026 13.384%
BRANCH_DIRECT_CALL: 3559126 1.77956%
BRANCH_INDIRECT_CALL: 2386088 1.19304%
BRANCH_RETURN: 5945216 2.97261%
BRANCH_OTHER: 0 0%

DRAM PAGES: 1048576
Allocated PAGES: 47401
