
*** ChampSim Multicore Out-of-Order Simulator ***

Warmup Instructions: 50000000
Simulation Instructions: 200000000
Number of CPUs: 1
LLC sets: 2048
LLC ways: 16
L0D sets: 16
L0D ways: 2
ROB size: 352
LQ size: 128
SQ size: 72
Secure Berti: OFF
Berti: OFF
Berti Fill: OFF
On commit prefetching: ON
Hit-based filter: ON
Time-guarding: ON
Free-slotting: ON
Leap-frogging: ON
Train prefetcher on L0D bypass: OFF
No translation penalty for prefetchers: OFF
Prefetch to L0D only: OFF
Prefetch to L1D only: OFF
Clean evictions: ON
Commit loads: ON
Commit write: ON
Fill commit loads to L2C, LLC: ON
DRAM IO FREQUENCY: 6400
ROB SIZE: 352
Off-chip DRAM Size: 4096 MB Channels: 1 Width: 64-bit Data Rate: 6400 MT/s
CPU 0 runs /home/sumon/secure_berti/GhostMinion/../../traces/spec/621.wrf_s-8065B.champsimtrace.xz
.xz
BTB has LRU replacement policy
ITLB has LRU replacement policy
DTLB has LRU replacement policy
STLB has LRU replacement policy
L1I has LRU replacement policy
L0D has LRU replacement policy
History Sets: 8
History Ways: 16
BERTI Size: 16
BERTI Stride Size: 16
L1D has LRU replacement policy
L2C has LRU replacement policy
LLC has LRU replacement policy
Heartbeat CPU 0 instructions: 10000000 cycles: 3218167 heartbeat IPC: 3.10736 cumulative IPC: 3.10736 (Simulation time: 0 hr 0 min 42 sec) 
Heartbeat CPU 0 instructions: 20000000 cycles: 6379359 heartbeat IPC: 3.16336 cumulative IPC: 3.13511 (Simulation time: 0 hr 1 min 16 sec) 
Heartbeat CPU 0 instructions: 30000000 cycles: 9531559 heartbeat IPC: 3.17239 cumulative IPC: 3.14744 (Simulation time: 0 hr 1 min 52 sec) 
Heartbeat CPU 0 instructions: 40000003 cycles: 12745252 heartbeat IPC: 3.11169 cumulative IPC: 3.13842 (Simulation time: 0 hr 2 min 30 sec) 
Heartbeat CPU 0 instructions: 50000002 cycles: 15919735 heartbeat IPC: 3.15012 cumulative IPC: 3.14076 (Simulation time: 0 hr 3 min 10 sec) 

Warmup complete CPU 0 instructions: 50000002 cycles: 15919735 (Simulation time: 0 hr 3 min 10 sec) 

Heartbeat CPU 0 instructions: 60000003 cycles: 24663996 heartbeat IPC: 1.14361 cumulative IPC: 1.14361 (Simulation time: 0 hr 3 min 55 sec) 
Heartbeat CPU 0 instructions: 70000003 cycles: 35637982 heartbeat IPC: 0.911246 cumulative IPC: 1.01429 (Simulation time: 0 hr 4 min 38 sec) 
Heartbeat CPU 0 instructions: 80000001 cycles: 44701951 heartbeat IPC: 1.10327 cumulative IPC: 1.04231 (Simulation time: 0 hr 5 min 25 sec) 
Heartbeat CPU 0 instructions: 90000000 cycles: 55485273 heartbeat IPC: 0.927358 cumulative IPC: 1.01098 (Simulation time: 0 hr 6 min 8 sec) 
Heartbeat CPU 0 instructions: 100000000 cycles: 64710517 heartbeat IPC: 1.08398 cumulative IPC: 1.02478 (Simulation time: 0 hr 6 min 56 sec) 
Heartbeat CPU 0 instructions: 110000000 cycles: 75299826 heartbeat IPC: 0.944349 cumulative IPC: 1.01044 (Simulation time: 0 hr 7 min 39 sec) 
Heartbeat CPU 0 instructions: 120000000 cycles: 88268008 heartbeat IPC: 0.771118 cumulative IPC: 0.967542 (Simulation time: 0 hr 8 min 32 sec) 
Heartbeat CPU 0 instructions: 130000002 cycles: 100294070 heartbeat IPC: 0.831528 cumulative IPC: 0.948156 (Simulation time: 0 hr 9 min 21 sec) 
Heartbeat CPU 0 instructions: 140000001 cycles: 112340157 heartbeat IPC: 0.830145 cumulative IPC: 0.933412 (Simulation time: 0 hr 10 min 11 sec) 
Heartbeat CPU 0 instructions: 150000002 cycles: 126221913 heartbeat IPC: 0.72037 cumulative IPC: 0.9066 (Simulation time: 0 hr 11 min 4 sec) 
Heartbeat CPU 0 instructions: 160000001 cycles: 140736565 heartbeat IPC: 0.688959 cumulative IPC: 0.881291 (Simulation time: 0 hr 11 min 53 sec) 
Heartbeat CPU 0 instructions: 170000003 cycles: 155752286 heartbeat IPC: 0.665969 cumulative IPC: 0.858169 (Simulation time: 0 hr 12 min 49 sec) 
Heartbeat CPU 0 instructions: 180000000 cycles: 164286595 heartbeat IPC: 1.17174 cumulative IPC: 0.876206 (Simulation time: 0 hr 13 min 31 sec) 
Heartbeat CPU 0 instructions: 190000001 cycles: 172406177 heartbeat IPC: 1.23159 cumulative IPC: 0.894646 (Simulation time: 0 hr 14 min 17 sec) 
Heartbeat CPU 0 instructions: 200000003 cycles: 181345734 heartbeat IPC: 1.11862 cumulative IPC: 0.90675 (Simulation time: 0 hr 14 min 58 sec) 
Heartbeat CPU 0 instructions: 210000000 cycles: 190145117 heartbeat IPC: 1.13644 cumulative IPC: 0.918351 (Simulation time: 0 hr 15 min 36 sec) 
Heartbeat CPU 0 instructions: 220000000 cycles: 198174740 heartbeat IPC: 1.24539 cumulative IPC: 0.932759 (Simulation time: 0 hr 16 min 15 sec) 
Heartbeat CPU 0 instructions: 230000000 cycles: 209267391 heartbeat IPC: 0.901498 cumulative IPC: 0.930965 (Simulation time: 0 hr 16 min 57 sec) 
Heartbeat CPU 0 instructions: 240000001 cycles: 228820262 heartbeat IPC: 0.511434 cumulative IPC: 0.892436 (Simulation time: 0 hr 17 min 50 sec) 
Heartbeat CPU 0 instructions: 250000000 cycles: 241469512 heartbeat IPC: 0.790561 cumulative IPC: 0.886722 (Simulation time: 0 hr 18 min 42 sec) 
Finished CPU 0 instructions: 200000000 cycles: 225549780 cumulative IPC: 0.886722 (Simulation time: 0 hr 18 min 42 sec) 
 Instruction ID: 250000036

ChampSim completed all CPUs

Region of Interest Statistics

CPU 0 cumulative IPC: 0.886722 instructions: 200000000 cycles: 225549780
ITLB SPEC fills:          0  NON-SPEC fills:          0
ITLB Test counter :          0
ITLB Leapfrog:          0
ITLB MSHR merge:          0
ITLB TOTAL     ACCESS:   28039138  HIT:   28039003  MISS:        135  HIT %:    99.9995  MISS %: 0.00048147   MPKI: 0.000675
ITLB LOAD TRANSLATION NON_SPEC    ACCESS:   28039138  HIT:   28039003  MISS:        135  HIT %:    99.9995  MISS %: 0.00048147   MPKI: 0.000675
ITLB PREFETCH  REQUESTED:          0  ISSUED:          0  USEFUL:          0  USELESS:          0
ITLB USEFUL LOAD PREFETCHES:          0 PREFETCH ISSUED TO LOWER LEVEL:          0  ACCURACY: -nan
ITLB TIMELY PREFETCHES:          0 LATE PREFETCHES: 0 DROPPED PREFETCHES: 0
ITLB COMMIT LATE PREFETCHES: 0 MISSED OPPORTUNITY: 0 LATE IN PQ: 0 UNCOVERED: 0
ITLB COMMIT LATE MSHR PREFETCHES: 0
ITLB MPKI TOTAL: 0 MSHR LATE: 0 PQ LATE: 0 COMMIT LATE: 0 MISSED OPPORTUNITY: 0 UNCOVERED: 0
ITLB PREFETCHES SAME FILL-ORIGIN LEVEL: 0 DIFFERENT FILL-ORIGIN LEVEL: 0
ITLB AVERAGE MISS LATENCY: 338.237 cycles
ITLB AVERAGE MISS LATENCY LOAD: -nan cycles
ITLB AVERAGE MISS LATENCY PREFETCH: -nan cycles
ITLB AVERAGE MSHR OCCUPANCY: 1.85455e-06
ITLB MSHR FULL: 0
ITLB RQ	ACCESS:   34220429	FORWARD:          0	MERGED:    6181241	TO_CACHE:   28039188

DTLB SPEC fills:          0  NON-SPEC fills:          0
DTLB Test counter :          0
DTLB Leapfrog:          0
DTLB MSHR merge:          0
DTLB TOTAL     ACCESS:   50134442  HIT:   50063128  MISS:      71314  HIT %:    99.8578  MISS %:   0.142246   MPKI: 0.35657
DTLB LOAD TRANSLATION NON_SPEC    ACCESS:   50134442  HIT:   50063128  MISS:      71314  HIT %:    99.8578  MISS %:   0.142246   MPKI: 0.35657
DTLB PREFETCH  REQUESTED:          0  ISSUED:          0  USEFUL:          0  USELESS:          0
DTLB USEFUL LOAD PREFETCHES:          0 PREFETCH ISSUED TO LOWER LEVEL:          0  ACCURACY: -nan
DTLB TIMELY PREFETCHES:          0 LATE PREFETCHES: 0 DROPPED PREFETCHES: 0
DTLB COMMIT LATE PREFETCHES: 0 MISSED OPPORTUNITY: 0 LATE IN PQ: 0 UNCOVERED: 0
DTLB COMMIT LATE MSHR PREFETCHES: 0
DTLB MPKI TOTAL: 0 MSHR LATE: 0 PQ LATE: 0 COMMIT LATE: 0 MISSED OPPORTUNITY: 0 UNCOVERED: 0
DTLB PREFETCHES SAME FILL-ORIGIN LEVEL: 0 DIFFERENT FILL-ORIGIN LEVEL: 0
DTLB AVERAGE MISS LATENCY: 31.8923 cycles
DTLB AVERAGE MISS LATENCY LOAD: -nan cycles
DTLB AVERAGE MISS LATENCY PREFETCH: -nan cycles
DTLB AVERAGE MSHR OCCUPANCY: 0.00609731
DTLB MSHR FULL: 6.37316e-05
DTLB RQ	ACCESS:   57222408	FORWARD:          0	MERGED:    7046320	TO_CACHE:   50176088

STLB SPEC fills:          0  NON-SPEC fills:          0
STLB Test counter :          0
STLB Leapfrog:          0
STLB MSHR merge:          0
STLB TOTAL     ACCESS:   13965816  HIT:   13950186  MISS:      15630  HIT %:    99.8881  MISS %:   0.111916   MPKI: 0.07815
STLB LOAD TRANSLATION NON_SPEC    ACCESS:      71449  HIT:      63196  MISS:       8253  HIT %:    88.4491  MISS %:    11.5509   MPKI: 0.041265
STLB TRANSLATION FROM L1D PREFETCHER NON_SPEC    ACCESS:   13894367  HIT:   13886990  MISS:       7377  HIT %:    99.9469  MISS %:  0.0530935   MPKI: 0.036885
STLB PREFETCH  REQUESTED:          0  ISSUED:          0  USEFUL:       7364  USELESS:         12
STLB USEFUL LOAD PREFETCHES:       7364 PREFETCH ISSUED TO LOWER LEVEL:          0  ACCURACY: inf
STLB TIMELY PREFETCHES:       7364 LATE PREFETCHES: 2327 DROPPED PREFETCHES: 43223
STLB COMMIT LATE PREFETCHES: 0 MISSED OPPORTUNITY: 0 LATE IN PQ: 0 UNCOVERED: 0
STLB COMMIT LATE MSHR PREFETCHES: 0
STLB MPKI TOTAL: 0 MSHR LATE: 0.011635 PQ LATE: 0 COMMIT LATE: 0 MISSED OPPORTUNITY: 0 UNCOVERED: 0
STLB PREFETCHES SAME FILL-ORIGIN LEVEL: 0 DIFFERENT FILL-ORIGIN LEVEL: 0
STLB AVERAGE MISS LATENCY: 152.911 cycles
STLB AVERAGE MISS LATENCY LOAD: -nan cycles
STLB AVERAGE MISS LATENCY PREFETCH: -nan cycles
STLB AVERAGE MSHR OCCUPANCY: 0.0187712
STLB MSHR FULL: 0
STLB RQ	ACCESS:   64335696	FORWARD:          0	MERGED:   50318689	TO_CACHE:   14017007

STLB Hit, L1D data hit: 0
STLB Hit, L2C data hit: 0
STLB Hit, LLC data hit: 0
STLB Hit, LLC data miss: 0
STLB STLB hints to L2: 0
L0D SPEC fills:   33195257  NON-SPEC fills:          0
L0D TimeGuard Request with older TS:     593955 Restricted eviction:     569147 read:    1401281
L0D Test counter :          0
L0D Leapfrog:          0
L0D MSHR merge:    1978602
L0D TOTAL     ACCESS:   46746330  HIT:    6752087  MISS:   39994243  HIT %:    14.4441  MISS %:    85.5559   MPKI: 199.971
L0D LOAD      TOTAL       ACCESS:   46746330  HIT:    6752087  MISS:   39994243  HIT %:    14.4441  MISS %:    85.5559   MPKI: 199.971
L0D LOAD      NON_SPEC    ACCESS:    7503941  HIT:    1273877  MISS:    6230064  HIT %:    16.9761  MISS %:    83.0239   MPKI: 31.1503
L0D LOAD      SPEC        ACCESS:   39242389  HIT:    5478210  MISS:   33764179  HIT %:    13.9599  MISS %:    86.0401   MPKI: 168.821
L0D PREFETCH  REQUESTED:          0  ISSUED:          0  USEFUL:          0  USELESS:          0
L0D USEFUL LOAD PREFETCHES:          0 PREFETCH ISSUED TO LOWER LEVEL:          0  ACCURACY: -nan
L0D TIMELY PREFETCHES:          0 LATE PREFETCHES: 0 DROPPED PREFETCHES: 0
L0D COMMIT LATE PREFETCHES: 0 MISSED OPPORTUNITY: 0 LATE IN PQ: 0 UNCOVERED: 0
L0D COMMIT LATE MSHR PREFETCHES: 0
L0D MPKI TOTAL: 209.864 MSHR LATE: 0 PQ LATE: 0 COMMIT LATE: 0 MISSED OPPORTUNITY: 0 UNCOVERED: 0
L0D PREFETCHES SAME FILL-ORIGIN LEVEL: 0 DIFFERENT FILL-ORIGIN LEVEL: 0
L0D AVERAGE MISS LATENCY: 7.51605 cycles
L0D AVERAGE MISS LATENCY LOAD: 7.51605 cycles
L0D AVERAGE MISS LATENCY PREFETCH: -nan cycles
L0D AVERAGE MSHR OCCUPANCY: 1.92439
L0D MSHR FULL: 0.0656269
L0D RQ	ACCESS:   60831732	FORWARD:          0	MERGED:   12106803	TO_CACHE:   48724929
L0D WQ	ACCESS:    8497479	FORWARD:          0	MERGED:          0	TO_CACHE:    8497479

L1D SPEC fills:          0  NON-SPEC fills:      43001
L1D Test counter :     349451
L1D Leapfrog:          0
L1D MSHR merge:      55116
L1D TOTAL     ACCESS:  104154397  HIT:  100752262  MISS:    3402135  HIT %:    96.7336  MISS %:    3.26643   MPKI: 17.0107
L1D LOAD      TOTAL       ACCESS:   39985724  HIT:   39245557  MISS:     740167  HIT %:    98.1489  MISS %:    1.85108   MPKI: 3.70084
L1D LOAD      NON_SPEC    ACCESS:    6229736  HIT:    6186735  MISS:      43001  HIT %:    99.3097  MISS %:   0.690254   MPKI: 0.215005
L1D LOAD      SPEC        ACCESS:   33755988  HIT:   33058822  MISS:     697166  HIT %:    97.9347  MISS %:    2.06531   MPKI: 3.48583
L1D RFO       NON_SPEC    ACCESS:    7408066  HIT:    7214272  MISS:     193794  HIT %:     97.384  MISS %:    2.61599   MPKI: 0.96897
L1D PREFETCH  NON_SPEC    ACCESS:   55543125  HIT:   53719289  MISS:    1823836  HIT %:    96.7164  MISS %:    3.28364   MPKI: 9.11918
L1D COMMIT LOAD NON_SPEC    ACCESS:     568124  HIT:     510524  MISS:      57600  HIT %:    89.8614  MISS %:    10.1386   MPKI: 0.288
L1D COMMIT WRITE NON_SPEC    ACCESS:     649358  HIT:      62620  MISS:     586738  HIT %:    9.64337  MISS %:    90.3566   MPKI: 2.93369
L1D PREFETCH  REQUESTED:  152850372  ISSUED:   71149000  USEFUL:    1585794  USELESS:     238074
L1D USEFUL LOAD PREFETCHES:    1585794 PREFETCH ISSUED TO LOWER LEVEL:    8992392  ACCURACY: 17.6348
L1D TIMELY PREFETCHES:    1585794 LATE PREFETCHES: 51457 DROPPED PREFETCHES: 95067
L1D COMMIT LATE PREFETCHES: 0 MISSED OPPORTUNITY: 0 LATE IN PQ: 0 UNCOVERED: 0
L1D COMMIT LATE MSHR PREFETCHES: 0
L1D MPKI TOTAL: 3.74343 MSHR LATE: 0.257285 PQ LATE: 0 COMMIT LATE: 0 MISSED OPPORTUNITY: 0 UNCOVERED: 0
L1D PREFETCHES SAME FILL-ORIGIN LEVEL: 1900512 DIFFERENT FILL-ORIGIN LEVEL: 7091880
L1D AVERAGE MISS LATENCY: 88.355 cycles
L1D AVERAGE MISS LATENCY LOAD: 116.067 cycles
L1D AVERAGE MISS LATENCY PREFETCH: 89.117 cycles
L1D AVERAGE MSHR OCCUPANCY: 1.08884
L1D MSHR FULL: 0.00844041
L1D RQ	ACCESS:   40988349	FORWARD:          0	MERGED:     336049	TO_CACHE:   40568865
L1D WQ	ACCESS:    8574052	FORWARD:      83435	MERGED:      46153	TO_CACHE:    8527899
L1D PQ	ACCESS:   71149000	FORWARD:          0	MERGED:    6884753	TO_CACHE:   64264247

L1D UNIQUE REGIONS ACCESSED: 0
L1D REGIONS CONFLICTS: 0
L1D Cross Page Prefetch Requests: 10873834
L1D Same Page Prefetch Requests: 82292146
L1D ROI Sum of L1D PQ occupancy: 1126521649
L1D PREFETCHES PUSHED FROM L2C: 0
L1I SPEC fills:          0  NON-SPEC fills:          0
L1I Test counter :          0
L1I Leapfrog:          0
L1I MSHR merge:       2445
L1I TOTAL     ACCESS:   34217983  HIT:   34213185  MISS:       4798  HIT %:     99.986  MISS %:  0.0140219   MPKI: 0.02399
L1I LOAD      TOTAL       ACCESS:   34217983  HIT:   34213185  MISS:       4798  HIT %:     99.986  MISS %:  0.0140219   MPKI: 0.02399
L1I LOAD      NON_SPEC    ACCESS:   34217983  HIT:   34213185  MISS:       4798  HIT %:     99.986  MISS %:  0.0140219   MPKI: 0.02399
L1I PREFETCH  REQUESTED:          0  ISSUED:          0  USEFUL:          0  USELESS:          0
L1I USEFUL LOAD PREFETCHES:          0 PREFETCH ISSUED TO LOWER LEVEL:          0  ACCURACY: -nan
L1I TIMELY PREFETCHES:          0 LATE PREFETCHES: 0 DROPPED PREFETCHES: 0
L1I COMMIT LATE PREFETCHES: 0 MISSED OPPORTUNITY: 0 LATE IN PQ: 0 UNCOVERED: 0
L1I COMMIT LATE MSHR PREFETCHES: 0
L1I MPKI TOTAL: 0.036215 MSHR LATE: 0 PQ LATE: 0 COMMIT LATE: 0 MISSED OPPORTUNITY: 0 UNCOVERED: 0
L1I PREFETCHES SAME FILL-ORIGIN LEVEL: 0 DIFFERENT FILL-ORIGIN LEVEL: 0
L1I AVERAGE MISS LATENCY: 217.806 cycles
L1I AVERAGE MISS LATENCY LOAD: 217.806 cycles
L1I AVERAGE MISS LATENCY PREFETCH: -nan cycles
L1I AVERAGE MSHR OCCUPANCY: 0.000183399
L1I MSHR FULL: 0
L1I RQ	ACCESS:   51044352	FORWARD:          0	MERGED:   16823923	TO_CACHE:   34220429

BTB SPEC fills:          0  NON-SPEC fills:          0
BTB Test counter :          0
BTB Leapfrog:          0
BTB MSHR merge:          0
BTB TOTAL     ACCESS:    8324261  HIT:    8322678  MISS:       1583  HIT %:     99.981  MISS %:  0.0190167   MPKI: 0.007915
BTB BRANCH_DIRECT_JUMP	ACCESS:     290669  HIT:     290546  MISS:        123
BTB BRANCH_INDIRECT	ACCESS:         14  HIT:          6  MISS:          8
BTB BRANCH_CONDITIONAL	ACCESS:    7471641  HIT:    7470905  MISS:        736
BTB BRANCH_DIRECT_CALL	ACCESS:     280969  HIT:     280663  MISS:        306
BTB BRANCH_INDIRECT_CALL	ACCESS:          0  HIT:          0  MISS:          0
BTB BRANCH_RETURN	ACCESS:     280968  HIT:     280558  MISS:        410
BTB BRANCH_OTHER ACCESS:          0  HIT:          0  MISS:          0

L2C SPEC fills:          0  NON-SPEC fills:      12567
L2C Test counter :     319322
L2C Leapfrog:          0
L2C MSHR merge:      40146
L2C TOTAL     ACCESS:   10280399  HIT:    8188444  MISS:    2091955  HIT %:     79.651  MISS %:     20.349   MPKI: 10.4598
L2C LOAD      TOTAL       ACCESS:     698131  HIT:     418600  MISS:     279531  HIT %:    59.9601  MISS %:    40.0399   MPKI: 1.39766
L2C LOAD      NON_SPEC    ACCESS:      44876  HIT:      27511  MISS:      17365  HIT %:    61.3045  MISS %:    38.6955   MPKI: 0.086825
L2C LOAD      SPEC        ACCESS:     653255  HIT:     391089  MISS:     262166  HIT %:    59.8677  MISS %:    40.1323   MPKI: 1.31083
L2C RFO       NON_SPEC    ACCESS:     168720  HIT:      58291  MISS:     110429  HIT %:     34.549  MISS %:     65.451   MPKI: 0.552145
L2C PREFETCH  NON_SPEC    ACCESS:    8054018  HIT:    6550358  MISS:    1503660  HIT %:    81.3303  MISS %:    18.6697   MPKI: 7.5183
L2C WRITEBACK NON_SPEC    ACCESS:     656687  HIT:     654777  MISS:       1910  HIT %:    99.7091  MISS %:   0.290854   MPKI: 0.00955
L2C CLEAN_EVICTION NON_SPEC    ACCESS:     349451  HIT:     164886  MISS:     184565  HIT %:    47.1843  MISS %:    52.8157   MPKI: 0.922825
L2C COMMIT LOAD NON_SPEC    ACCESS:      52740  HIT:      43966  MISS:       8774  HIT %:    83.3637  MISS %:    16.6363   MPKI: 0.04387
L2C LOAD TRANSLATION NON_SPEC    ACCESS:      36034  HIT:      34850  MISS:       1184  HIT %:    96.7142  MISS %:    3.28579   MPKI: 0.00592
L2C TRANSLATION FROM L1D PREFETCHER NON_SPEC    ACCESS:     264618  HIT:     262716  MISS:       1902  HIT %:    99.2812  MISS %:   0.718772   MPKI: 0.00951
L2C PREFETCH  REQUESTED:          0  ISSUED:          0  USEFUL:     244403  USELESS:    1259592
L2C USEFUL LOAD PREFETCHES:     244403 PREFETCH ISSUED TO LOWER LEVEL:    1573459  ACCURACY: 15.5328
L2C TIMELY PREFETCHES:     244403 LATE PREFETCHES: 69796 DROPPED PREFETCHES: 0
L2C COMMIT LATE PREFETCHES: 0 MISSED OPPORTUNITY: 0 LATE IN PQ: 0 UNCOVERED: 0
L2C COMMIT LATE MSHR PREFETCHES: 0
L2C MPKI TOTAL: 1.39766 MSHR LATE: 0.34898 PQ LATE: 0 COMMIT LATE: 0 MISSED OPPORTUNITY: 0 UNCOVERED: 0
L2C PREFETCHES SAME FILL-ORIGIN LEVEL: 809365 DIFFERENT FILL-ORIGIN LEVEL: 0
L2C AVERAGE MISS LATENCY: 197.669 cycles
L2C AVERAGE MISS LATENCY LOAD: 253.944 cycles
L2C AVERAGE MISS LATENCY PREFETCH: 194.971 cycles
L2C AVERAGE MSHR OCCUPANCY: 9.8944
L2C MSHR FULL: 0.184
L2C RQ	ACCESS:    1220493	FORWARD:          0	MERGED:          0	TO_CACHE:    1220243
L2C WQ	ACCESS:    1006185	FORWARD:        333	MERGED:         47	TO_CACHE:    1006138
L2C PQ	ACCESS:    8978457	FORWARD:          0	MERGED:       2477	TO_CACHE:    8975897

L2C Instructions Evicting Data 4783
L2C Translations Evicting Data 3080
L2C Data Evicting Data 1628275
L2C Instructions Evicting Instructions 6
L2C Translations Evicting Instructions 5
L2C Data Evicting Instructions 4452
L2C Instructions Evicting Translations 9
L2C Translations Evicting Translations 1
L2C Data Evicting Translations 2703
L2C Dense regions hint from L2: 0
PSCL5 SPEC fills:          0  NON-SPEC fills:          0
PSCL5 Test counter :          0
PSCL5 Leapfrog:          0
PSCL5 MSHR merge:          0
PSCL5 TOTAL     ACCESS:          0  HIT:          0  MISS:          0  HIT %:       -nan  MISS %:       -nan   MPKI: 0
PSCL5 PREFETCH  REQUESTED:          0  ISSUED:          0  USEFUL:          0  USELESS:          0
PSCL5 USEFUL LOAD PREFETCHES:          0 PREFETCH ISSUED TO LOWER LEVEL:          0  ACCURACY: -nan
PSCL5 TIMELY PREFETCHES:          0 LATE PREFETCHES: 0 DROPPED PREFETCHES: 0
PSCL5 COMMIT LATE PREFETCHES: 0 MISSED OPPORTUNITY: 0 LATE IN PQ: 0 UNCOVERED: 0
PSCL5 COMMIT LATE MSHR PREFETCHES: 0
PSCL5 MPKI TOTAL: 0 MSHR LATE: 0 PQ LATE: 0 COMMIT LATE: 0 MISSED OPPORTUNITY: 0 UNCOVERED: 0
PSCL5 PREFETCHES SAME FILL-ORIGIN LEVEL: 0 DIFFERENT FILL-ORIGIN LEVEL: 0

PSCL4 SPEC fills:          0  NON-SPEC fills:          0
PSCL4 Test counter :          0
PSCL4 Leapfrog:          0
PSCL4 MSHR merge:          0
PSCL4 TOTAL     ACCESS:          0  HIT:          0  MISS:          0  HIT %:       -nan  MISS %:       -nan   MPKI: 0
PSCL4 PREFETCH  REQUESTED:          0  ISSUED:          0  USEFUL:          0  USELESS:          0
PSCL4 USEFUL LOAD PREFETCHES:          0 PREFETCH ISSUED TO LOWER LEVEL:          0  ACCURACY: -nan
PSCL4 TIMELY PREFETCHES:          0 LATE PREFETCHES: 0 DROPPED PREFETCHES: 0
PSCL4 COMMIT LATE PREFETCHES: 0 MISSED OPPORTUNITY: 0 LATE IN PQ: 0 UNCOVERED: 0
PSCL4 COMMIT LATE MSHR PREFETCHES: 0
PSCL4 MPKI TOTAL: 0 MSHR LATE: 0 PQ LATE: 0 COMMIT LATE: 0 MISSED OPPORTUNITY: 0 UNCOVERED: 0
PSCL4 PREFETCHES SAME FILL-ORIGIN LEVEL: 0 DIFFERENT FILL-ORIGIN LEVEL: 0

PSCL3 SPEC fills:          0  NON-SPEC fills:          0
PSCL3 Test counter :          0
PSCL3 Leapfrog:          0
PSCL3 MSHR merge:          0
PSCL3 TOTAL     ACCESS:          0  HIT:          0  MISS:          0  HIT %:       -nan  MISS %:       -nan   MPKI: 0
PSCL3 PREFETCH  REQUESTED:          0  ISSUED:          0  USEFUL:          0  USELESS:          0
PSCL3 USEFUL LOAD PREFETCHES:          0 PREFETCH ISSUED TO LOWER LEVEL:          0  ACCURACY: -nan
PSCL3 TIMELY PREFETCHES:          0 LATE PREFETCHES: 0 DROPPED PREFETCHES: 0
PSCL3 COMMIT LATE PREFETCHES: 0 MISSED OPPORTUNITY: 0 LATE IN PQ: 0 UNCOVERED: 0
PSCL3 COMMIT LATE MSHR PREFETCHES: 0
PSCL3 MPKI TOTAL: 0 MSHR LATE: 0 PQ LATE: 0 COMMIT LATE: 0 MISSED OPPORTUNITY: 0 UNCOVERED: 0
PSCL3 PREFETCHES SAME FILL-ORIGIN LEVEL: 0 DIFFERENT FILL-ORIGIN LEVEL: 0

PSCL2 SPEC fills:          0  NON-SPEC fills:          0
PSCL2 Test counter :          0
PSCL2 Leapfrog:          0
PSCL2 MSHR merge:          0
PSCL2 TOTAL     ACCESS:          0  HIT:          0  MISS:          0  HIT %:       -nan  MISS %:       -nan   MPKI: 0
PSCL2 PREFETCH  REQUESTED:          0  ISSUED:          0  USEFUL:          0  USELESS:          0
PSCL2 USEFUL LOAD PREFETCHES:          0 PREFETCH ISSUED TO LOWER LEVEL:          0  ACCURACY: -nan
PSCL2 TIMELY PREFETCHES:          0 LATE PREFETCHES: 0 DROPPED PREFETCHES: 0
PSCL2 COMMIT LATE PREFETCHES: 0 MISSED OPPORTUNITY: 0 LATE IN PQ: 0 UNCOVERED: 0
PSCL2 COMMIT LATE MSHR PREFETCHES: 0
PSCL2 MPKI TOTAL: 0 MSHR LATE: 0 PQ LATE: 0 COMMIT LATE: 0 MISSED OPPORTUNITY: 0 UNCOVERED: 0
PSCL2 PREFETCHES SAME FILL-ORIGIN LEVEL: 0 DIFFERENT FILL-ORIGIN LEVEL: 0

LLC SPEC fills:          0  NON-SPEC fills:       8297
LLC Test counter :     306921
LLC Leapfrog:          0
LLC MSHR merge:          0
LLC TOTAL     ACCESS:    2790998  HIT:    1190824  MISS:    1600174  HIT %:    42.6666  MISS %:    57.3334   MPKI: 8.00087
LLC LOAD      TOTAL       ACCESS:     239379  HIT:      23128  MISS:     216251  HIT %:    9.66167  MISS %:    90.3383   MPKI: 1.08126
LLC LOAD      NON_SPEC    ACCESS:      15666  HIT:       2571  MISS:      13095  HIT %:    16.4113  MISS %:    83.5887   MPKI: 0.065475
LLC LOAD      SPEC        ACCESS:     223713  HIT:      20557  MISS:     203156  HIT %:    9.18901  MISS %:     90.811   MPKI: 1.01578
LLC RFO       NON_SPEC    ACCESS:      81458  HIT:       2192  MISS:      79266  HIT %:    2.69096  MISS %:     97.309   MPKI: 0.39633
LLC PREFETCH  NON_SPEC    ACCESS:    1573453  HIT:     431571  MISS:    1141882  HIT %:    27.4283  MISS %:    72.5717   MPKI: 5.70941
LLC WRITEBACK NON_SPEC    ACCESS:     566206  HIT:     564766  MISS:       1440  HIT %:    99.7457  MISS %:   0.254324   MPKI: 0.0072
LLC CLEAN_EVICTION NON_SPEC    ACCESS:     319322  HIT:     167454  MISS:     151868  HIT %:    52.4405  MISS %:    47.5595   MPKI: 0.75934
LLC COMMIT LOAD NON_SPEC    ACCESS:       8094  HIT:       1420  MISS:       6674  HIT %:    17.5439  MISS %:    82.4561   MPKI: 0.03337
LLC LOAD TRANSLATION NON_SPEC    ACCESS:       1184  HIT:        144  MISS:       1040  HIT %:    12.1622  MISS %:    87.8378   MPKI: 0.0052
LLC TRANSLATION FROM L1D PREFETCHER NON_SPEC    ACCESS:       1902  HIT:        149  MISS:       1753  HIT %:    7.83386  MISS %:    92.1661   MPKI: 0.008765
LLC PREFETCH  REQUESTED:          0  ISSUED:          0  USEFUL:      16390  USELESS:    1123432
LLC USEFUL LOAD PREFETCHES:      16390 PREFETCH ISSUED TO LOWER LEVEL:    1141885  ACCURACY: 1.43535
LLC TIMELY PREFETCHES:      16390 LATE PREFETCHES: 0 DROPPED PREFETCHES: 0
LLC COMMIT LATE PREFETCHES: 0 MISSED OPPORTUNITY: 0 LATE IN PQ: 0 UNCOVERED: 0
LLC COMMIT LATE MSHR PREFETCHES: 0
LLC MPKI TOTAL: 1.08126 MSHR LATE: 0 PQ LATE: 0 COMMIT LATE: 0 MISSED OPPORTUNITY: 0 UNCOVERED: 0
LLC PREFETCHES SAME FILL-ORIGIN LEVEL: 0 DIFFERENT FILL-ORIGIN LEVEL: 0
LLC AVERAGE MISS LATENCY: 228.395 cycles
LLC AVERAGE MISS LATENCY LOAD: 252.032 cycles
LLC AVERAGE MISS LATENCY PREFETCH: 238.486 cycles
LLC AVERAGE MSHR OCCUPANCY: 5.27889
LLC MSHR FULL: 0
LLC RQ	ACCESS:     332024	FORWARD:          0	MERGED:          0	TO_CACHE:     332017
LLC WQ	ACCESS:     885528	FORWARD:         10	MERGED:          0	TO_CACHE:     885528
LLC PQ	ACCESS:    1573459	FORWARD:          0	MERGED:          0	TO_CACHE:    1573456

LLC Dense regions hint to LLC: 0

RAW hits: 217495
Loads Generated: 61049229
Loads sent to L1D: 60831732
Stores Generated: 8497471
Stores sent to L1D: 8497479
Major fault: 0 Minor fault: 8737
Allocated PAGES: 8737
Total Load insts: 77025511
Total Non-spec loads: 8375958
Percentage of speculative loads: 89.1257

LeapFrogging counter: 1059269
Commit hits: 32663906 miss: 20215072
Commit hit %: 61.7711 miss %: 38.2289
Commits not translated: 0
Loads retired: 740167
Stores retired: 8497479
Cache fills: 740167
L1D response latency: 116.067 cycles
Load retirement latency: 266.055 cycles
OOO test counter: 0
Discarded buffer inserts: 32663906 hits: 18248 hit %: 0.0558659
LATENCY_FILL: 42.7406 559976

DRAM Statistics
 CHANNEL 0
 RQ ROW_BUFFER_HIT:     351025  ROW_BUFFER_MISS:    1095706
 DBUS_CONGESTED:        655
 WQ ROW_BUFFER_HIT:     164271  ROW_BUFFER_MISS:     536155  FULL:       4884

 AVG_CONGESTED_CYCLE: 5
 All warmup complete: 2
Channel 0 Bank busy for read cycles: 0
Channel 0 Bank busy for write cycles: 0
Channel 0
Rank 0
0banks busy for read cycles: 111595929
0banks busy for write cycles: 87966
1banks busy for read cycles: 40790128
1banks busy for write cycles: 11768005
2banks busy for read cycles: 15289563
2banks busy for write cycles: 3809422
3banks busy for read cycles: 7935855
3banks busy for write cycles: 1843306
4banks busy for read cycles: 5169112
4banks busy for write cycles: 1218198
5banks busy for read cycles: 3832750
5banks busy for write cycles: 891876
6banks busy for read cycles: 2875774
6banks busy for write cycles: 798035
7banks busy for read cycles: 2325939
7banks busy for write cycles: 1572931
8banks busy for read cycles: 2347467
8banks busy for write cycles: 11397525

CPU 0 Branch Prediction Accuracy: 99.8281% MPKI: 0.09468 Average ROB Occupancy at Mispredict: 145.889
Branch types
NOT_BRANCH: 188985980 94.493%
BRANCH_DIRECT_JUMP: 290669 0.145335%
BRANCH_INDIRECT: 14 7e-06%
BRANCH_CONDITIONAL: 10161052 5.08053%
BRANCH_DIRECT_CALL: 280969 0.140485%
BRANCH_INDIRECT_CALL: 0 0%
BRANCH_RETURN: 280968 0.140484%
BRANCH_OTHER: 0 0%

DRAM PAGES: 1048576
Allocated PAGES: 8737
