
*** ChampSim Multicore Out-of-Order Simulator ***

Warmup Instructions: 50000000
Simulation Instructions: 200000000
Number of CPUs: 1
LLC sets: 2048
LLC ways: 16
L0D sets: 16
L0D ways: 2
ROB size: 352
LQ size: 128
SQ size: 72
Secure Berti: OFF
Berti: OFF
Berti Fill: OFF
On commit prefetching: ON
Hit-based filter: ON
Time-guarding: ON
Free-slotting: ON
Leap-frogging: ON
Train prefetcher on L0D bypass: OFF
No translation penalty for prefetchers: OFF
Prefetch to L0D only: OFF
Prefetch to L1D only: OFF
Clean evictions: ON
Commit loads: ON
Commit write: ON
Fill commit loads to L2C, LLC: ON
DRAM IO FREQUENCY: 6400
ROB SIZE: 352
Off-chip DRAM Size: 4096 MB Channels: 1 Width: 64-bit Data Rate: 6400 MT/s
CPU 0 runs /home/sumon/secure_berti/GhostMinion/../../traces/spec/621.wrf_s-6673B.champsimtrace.xz
.xz
BTB has LRU replacement policy
ITLB has LRU replacement policy
DTLB has LRU replacement policy
STLB has LRU replacement policy
L1I has LRU replacement policy
L0D has LRU replacement policy
History Sets: 8
History Ways: 16
BERTI Size: 16
BERTI Stride Size: 16
L1D has LRU replacement policy
L2C has LRU replacement policy
LLC has LRU replacement policy
Heartbeat CPU 0 instructions: 10000002 cycles: 5238345 heartbeat IPC: 1.909 cumulative IPC: 1.909 (Simulation time: 0 hr 1 min 1 sec) 
Heartbeat CPU 0 instructions: 20000002 cycles: 8452033 heartbeat IPC: 3.11169 cumulative IPC: 2.36629 (Simulation time: 0 hr 1 min 37 sec) 
Heartbeat CPU 0 instructions: 30000000 cycles: 11561142 heartbeat IPC: 3.21635 cumulative IPC: 2.5949 (Simulation time: 0 hr 2 min 11 sec) 
Heartbeat CPU 0 instructions: 40000002 cycles: 14635019 heartbeat IPC: 3.25322 cumulative IPC: 2.73317 (Simulation time: 0 hr 2 min 48 sec) 
Heartbeat CPU 0 instructions: 50000001 cycles: 17734307 heartbeat IPC: 3.22655 cumulative IPC: 2.81939 (Simulation time: 0 hr 3 min 21 sec) 

Warmup complete CPU 0 instructions: 50000001 cycles: 17734307 (Simulation time: 0 hr 3 min 21 sec) 

Heartbeat CPU 0 instructions: 60000000 cycles: 33469235 heartbeat IPC: 0.635529 cumulative IPC: 0.635529 (Simulation time: 0 hr 4 min 9 sec) 
Heartbeat CPU 0 instructions: 70000000 cycles: 50194828 heartbeat IPC: 0.597886 cumulative IPC: 0.616133 (Simulation time: 0 hr 5 min 0 sec) 
Heartbeat CPU 0 instructions: 80000000 cycles: 64770924 heartbeat IPC: 0.686055 cumulative IPC: 0.637801 (Simulation time: 0 hr 5 min 43 sec) 
Heartbeat CPU 0 instructions: 90000003 cycles: 79359995 heartbeat IPC: 0.685445 cumulative IPC: 0.64908 (Simulation time: 0 hr 6 min 30 sec) 
Heartbeat CPU 0 instructions: 100000000 cycles: 97625439 heartbeat IPC: 0.547482 cumulative IPC: 0.625852 (Simulation time: 0 hr 7 min 25 sec) 
Heartbeat CPU 0 instructions: 110000000 cycles: 105972025 heartbeat IPC: 1.19809 cumulative IPC: 0.679981 (Simulation time: 0 hr 7 min 59 sec) 
Heartbeat CPU 0 instructions: 120000003 cycles: 116701822 heartbeat IPC: 0.931984 cumulative IPC: 0.707303 (Simulation time: 0 hr 8 min 37 sec) 
Heartbeat CPU 0 instructions: 130000000 cycles: 125811157 heartbeat IPC: 1.09777 cumulative IPC: 0.740214 (Simulation time: 0 hr 9 min 16 sec) 
Heartbeat CPU 0 instructions: 140000001 cycles: 135385805 heartbeat IPC: 1.04442 cumulative IPC: 0.764971 (Simulation time: 0 hr 9 min 59 sec) 
Heartbeat CPU 0 instructions: 150000001 cycles: 145829599 heartbeat IPC: 0.957506 cumulative IPC: 0.780669 (Simulation time: 0 hr 10 min 40 sec) 
Heartbeat CPU 0 instructions: 160000001 cycles: 154615072 heartbeat IPC: 1.13824 cumulative IPC: 0.803619 (Simulation time: 0 hr 11 min 21 sec) 
Heartbeat CPU 0 instructions: 170000001 cycles: 165224876 heartbeat IPC: 0.942524 cumulative IPC: 0.813611 (Simulation time: 0 hr 12 min 4 sec) 
Heartbeat CPU 0 instructions: 180000000 cycles: 174155549 heartbeat IPC: 1.11974 cumulative IPC: 0.831089 (Simulation time: 0 hr 12 min 43 sec) 
Heartbeat CPU 0 instructions: 190000000 cycles: 186829212 heartbeat IPC: 0.789038 cumulative IPC: 0.827937 (Simulation time: 0 hr 13 min 30 sec) 
Heartbeat CPU 0 instructions: 200000003 cycles: 198846486 heartbeat IPC: 0.832136 cumulative IPC: 0.828216 (Simulation time: 0 hr 14 min 15 sec) 
Heartbeat CPU 0 instructions: 210000000 cycles: 210885816 heartbeat IPC: 0.830611 cumulative IPC: 0.828365 (Simulation time: 0 hr 14 min 59 sec) 
Heartbeat CPU 0 instructions: 220000000 cycles: 223037442 heartbeat IPC: 0.822935 cumulative IPC: 0.828044 (Simulation time: 0 hr 15 min 42 sec) 
Heartbeat CPU 0 instructions: 230000001 cycles: 238972105 heartbeat IPC: 0.627563 cumulative IPC: 0.813604 (Simulation time: 0 hr 16 min 28 sec) 
Heartbeat CPU 0 instructions: 240000000 cycles: 254594906 heartbeat IPC: 0.64009 cumulative IPC: 0.80216 (Simulation time: 0 hr 17 min 15 sec) 
Heartbeat CPU 0 instructions: 250000000 cycles: 263113513 heartbeat IPC: 1.1739 cumulative IPC: 0.815065 (Simulation time: 0 hr 17 min 50 sec) 
Finished CPU 0 instructions: 200000003 cycles: 245379207 cumulative IPC: 0.815065 (Simulation time: 0 hr 17 min 50 sec) 
 Instruction ID: 250000091

ChampSim completed all CPUs

Region of Interest Statistics

CPU 0 cumulative IPC: 0.815065 instructions: 200000003 cycles: 245379207
ITLB SPEC fills:          0  NON-SPEC fills:          0
ITLB Test counter :          0
ITLB Leapfrog:          0
ITLB MSHR merge:          0
ITLB TOTAL     ACCESS:   29063553  HIT:   29063382  MISS:        171  HIT %:    99.9994  MISS %: 0.000588366   MPKI: 0.000855
ITLB LOAD TRANSLATION NON_SPEC    ACCESS:   29063553  HIT:   29063382  MISS:        171  HIT %:    99.9994  MISS %: 0.000588366   MPKI: 0.000855
ITLB PREFETCH  REQUESTED:          0  ISSUED:          0  USEFUL:          0  USELESS:          0
ITLB USEFUL LOAD PREFETCHES:          0 PREFETCH ISSUED TO LOWER LEVEL:          0  ACCURACY: -nan
ITLB TIMELY PREFETCHES:          0 LATE PREFETCHES: 0 DROPPED PREFETCHES: 0
ITLB COMMIT LATE PREFETCHES: 0 MISSED OPPORTUNITY: 0 LATE IN PQ: 0 UNCOVERED: 0
ITLB COMMIT LATE MSHR PREFETCHES: 0
ITLB MPKI TOTAL: 0 MSHR LATE: 0 PQ LATE: 0 COMMIT LATE: 0 MISSED OPPORTUNITY: 0 UNCOVERED: 0
ITLB PREFETCHES SAME FILL-ORIGIN LEVEL: 0 DIFFERENT FILL-ORIGIN LEVEL: 0
ITLB AVERAGE MISS LATENCY: 342.404 cycles
ITLB AVERAGE MISS LATENCY LOAD: -nan cycles
ITLB AVERAGE MISS LATENCY PREFETCH: -nan cycles
ITLB AVERAGE MSHR OCCUPANCY: 2.3741e-06
ITLB MSHR FULL: 0
ITLB RQ	ACCESS:   35228293	FORWARD:          0	MERGED:    6164682	TO_CACHE:   29063611

DTLB SPEC fills:          0  NON-SPEC fills:          0
DTLB Test counter :          0
DTLB Leapfrog:          0
DTLB MSHR merge:          0
DTLB TOTAL     ACCESS:   50864823  HIT:   50666742  MISS:     198081  HIT %:    99.6106  MISS %:   0.389426   MPKI: 0.990405
DTLB LOAD TRANSLATION NON_SPEC    ACCESS:   50864823  HIT:   50666742  MISS:     198081  HIT %:    99.6106  MISS %:   0.389426   MPKI: 0.990405
DTLB PREFETCH  REQUESTED:          0  ISSUED:          0  USEFUL:          0  USELESS:          0
DTLB USEFUL LOAD PREFETCHES:          0 PREFETCH ISSUED TO LOWER LEVEL:          0  ACCURACY: -nan
DTLB TIMELY PREFETCHES:          0 LATE PREFETCHES: 0 DROPPED PREFETCHES: 0
DTLB COMMIT LATE PREFETCHES: 0 MISSED OPPORTUNITY: 0 LATE IN PQ: 0 UNCOVERED: 0
DTLB COMMIT LATE MSHR PREFETCHES: 0
DTLB MPKI TOTAL: 0 MSHR LATE: 0 PQ LATE: 0 COMMIT LATE: 0 MISSED OPPORTUNITY: 0 UNCOVERED: 0
DTLB PREFETCHES SAME FILL-ORIGIN LEVEL: 0 DIFFERENT FILL-ORIGIN LEVEL: 0
DTLB AVERAGE MISS LATENCY: 21.9714 cycles
DTLB AVERAGE MISS LATENCY LOAD: -nan cycles
DTLB AVERAGE MISS LATENCY PREFETCH: -nan cycles
DTLB AVERAGE MSHR OCCUPANCY: 0.0235614
DTLB MSHR FULL: 0.00119884
DTLB RQ	ACCESS:   58513331	FORWARD:          0	MERGED:    7594312	TO_CACHE:   50919019

STLB SPEC fills:          0  NON-SPEC fills:          0
STLB Test counter :          0
STLB Leapfrog:          0
STLB MSHR merge:          0
STLB TOTAL     ACCESS:   14479300  HIT:   14451269  MISS:      28031  HIT %:    99.8064  MISS %:   0.193594   MPKI: 0.140155
STLB LOAD TRANSLATION NON_SPEC    ACCESS:     198252  HIT:     187595  MISS:      10657  HIT %:    94.6245  MISS %:    5.37548   MPKI: 0.053285
STLB TRANSLATION FROM L1D PREFETCHER NON_SPEC    ACCESS:   14281048  HIT:   14263674  MISS:      17374  HIT %:    99.8783  MISS %:   0.121658   MPKI: 0.08687
STLB PREFETCH  REQUESTED:          0  ISSUED:          0  USEFUL:      17304  USELESS:         72
STLB USEFUL LOAD PREFETCHES:      17304 PREFETCH ISSUED TO LOWER LEVEL:          0  ACCURACY: inf
STLB TIMELY PREFETCHES:      17304 LATE PREFETCHES: 3206 DROPPED PREFETCHES: 64354
STLB COMMIT LATE PREFETCHES: 0 MISSED OPPORTUNITY: 0 LATE IN PQ: 0 UNCOVERED: 0
STLB COMMIT LATE MSHR PREFETCHES: 0
STLB MPKI TOTAL: 0 MSHR LATE: 0.01603 PQ LATE: 0 COMMIT LATE: 0 MISSED OPPORTUNITY: 0 UNCOVERED: 0
STLB PREFETCHES SAME FILL-ORIGIN LEVEL: 0 DIFFERENT FILL-ORIGIN LEVEL: 0
STLB AVERAGE MISS LATENCY: 166.832 cycles
STLB AVERAGE MISS LATENCY LOAD: -nan cycles
STLB AVERAGE MISS LATENCY PREFETCH: -nan cycles
STLB AVERAGE MSHR OCCUPANCY: 0.0367079
STLB MSHR FULL: 5.83902e-06
STLB RQ	ACCESS:   66123935	FORWARD:          0	MERGED:   51566767	TO_CACHE:   14557168

STLB Hit, L1D data hit: 0
STLB Hit, L2C data hit: 0
STLB Hit, LLC data hit: 0
STLB Hit, LLC data miss: 0
STLB STLB hints to L2: 0
L0D SPEC fills:   32627454  NON-SPEC fills:          0
L0D TimeGuard Request with older TS:     635096 Restricted eviction:     550535 read:    1270732
L0D Test counter :          0
L0D Leapfrog:          0
L0D MSHR merge:    2260329
L0D TOTAL     ACCESS:   45397705  HIT:    6465977  MISS:   38931728  HIT %:     14.243  MISS %:     85.757   MPKI: 194.659
L0D LOAD      TOTAL       ACCESS:   45397705  HIT:    6465977  MISS:   38931728  HIT %:     14.243  MISS %:     85.757   MPKI: 194.659
L0D LOAD      NON_SPEC    ACCESS:    6707295  HIT:     953282  MISS:    5754013  HIT %:    14.2126  MISS %:    85.7874   MPKI: 28.7701
L0D LOAD      SPEC        ACCESS:   38690410  HIT:    5512695  MISS:   33177715  HIT %:    14.2482  MISS %:    85.7518   MPKI: 165.889
L0D PREFETCH  REQUESTED:          0  ISSUED:          0  USEFUL:          0  USELESS:          0
L0D USEFUL LOAD PREFETCHES:          0 PREFETCH ISSUED TO LOWER LEVEL:          0  ACCURACY: -nan
L0D TIMELY PREFETCHES:          0 LATE PREFETCHES: 0 DROPPED PREFETCHES: 0
L0D COMMIT LATE PREFETCHES: 0 MISSED OPPORTUNITY: 0 LATE IN PQ: 0 UNCOVERED: 0
L0D COMMIT LATE MSHR PREFETCHES: 0
L0D MPKI TOTAL: 205.96 MSHR LATE: 0 PQ LATE: 0 COMMIT LATE: 0 MISSED OPPORTUNITY: 0 UNCOVERED: 0
L0D PREFETCHES SAME FILL-ORIGIN LEVEL: 0 DIFFERENT FILL-ORIGIN LEVEL: 0
L0D AVERAGE MISS LATENCY: 8.77576 cycles
L0D AVERAGE MISS LATENCY LOAD: 8.77576 cycles
L0D AVERAGE MISS LATENCY PREFETCH: -nan cycles
L0D AVERAGE MSHR OCCUPANCY: 2.13462
L0D MSHR FULL: 0.0932949
L0D RQ	ACCESS:   58930199	FORWARD:          0	MERGED:   11272163	TO_CACHE:   47658036
L0D WQ	ACCESS:   10855295	FORWARD:          0	MERGED:          0	TO_CACHE:   10855295

L1D SPEC fills:          0  NON-SPEC fills:      44328
L1D Test counter :     575092
L1D Leapfrog:          0
L1D MSHR merge:     131798
L1D TOTAL     ACCESS:  104584239  HIT:   99802208  MISS:    4782031  HIT %:    95.4276  MISS %:    4.57242   MPKI: 23.9102
L1D LOAD      TOTAL       ACCESS:   38921083  HIT:   37844990  MISS:    1076093  HIT %:    97.2352  MISS %:    2.76481   MPKI: 5.38046
L1D LOAD      NON_SPEC    ACCESS:    5753514  HIT:    5709186  MISS:      44328  HIT %:    99.2295  MISS %:   0.770451   MPKI: 0.22164
L1D LOAD      SPEC        ACCESS:   33167569  HIT:   32135804  MISS:    1031765  HIT %:    96.8892  MISS %:    3.11076   MPKI: 5.15882
L1D RFO       NON_SPEC    ACCESS:    9307467  HIT:    8983153  MISS:     324314  HIT %:    96.5156  MISS %:    3.48445   MPKI: 1.62157
L1D PREFETCH  NON_SPEC    ACCESS:   54409514  HIT:   51982793  MISS:    2426721  HIT %:    95.5399  MISS %:     4.4601   MPKI: 12.1336
L1D COMMIT LOAD NON_SPEC    ACCESS:     940967  HIT:     872489  MISS:      68478  HIT %:    92.7226  MISS %:    7.27741   MPKI: 0.34239
L1D COMMIT WRITE NON_SPEC    ACCESS:    1005208  HIT:     118783  MISS:     886425  HIT %:    11.8168  MISS %:    88.1832   MPKI: 4.43212
L1D PREFETCH  REQUESTED:  166454399  ISSUED:   76811333  USEFUL:    2002125  USELESS:     424546
L1D USEFUL LOAD PREFETCHES:    2002125 PREFETCH ISSUED TO LOWER LEVEL:   11863787  ACCURACY: 16.8759
L1D TIMELY PREFETCHES:    2002125 LATE PREFETCHES: 130485 DROPPED PREFETCHES: 140757
L1D COMMIT LATE PREFETCHES: 0 MISSED OPPORTUNITY: 0 LATE IN PQ: 0 UNCOVERED: 0
L1D COMMIT LATE MSHR PREFETCHES: 0
L1D MPKI TOTAL: 5.43368 MSHR LATE: 0.652425 PQ LATE: 0 COMMIT LATE: 0 MISSED OPPORTUNITY: 0 UNCOVERED: 0
L1D PREFETCHES SAME FILL-ORIGIN LEVEL: 2592061 DIFFERENT FILL-ORIGIN LEVEL: 9271726
L1D AVERAGE MISS LATENCY: 98.4105 cycles
L1D AVERAGE MISS LATENCY LOAD: 120.232 cycles
L1D AVERAGE MISS LATENCY PREFETCH: 110.41 cycles
L1D AVERAGE MSHR OCCUPANCY: 1.59094
L1D MSHR FULL: 0.0172269
L1D RQ	ACCESS:   40491971	FORWARD:          0	MERGED:     498865	TO_CACHE:   39888716
L1D WQ	ACCESS:   11123027	FORWARD:     104390	MERGED:      96139	TO_CACHE:   11026888
L1D PQ	ACCESS:   76811333	FORWARD:          0	MERGED:   10885650	TO_CACHE:   65925683

L1D UNIQUE REGIONS ACCESSED: 0
L1D REGIONS CONFLICTS: 0
L1D Cross Page Prefetch Requests: 11243687
L1D Same Page Prefetch Requests: 88893637
L1D ROI Sum of L1D PQ occupancy: 1210296444
L1D PREFETCHES PUSHED FROM L2C: 0
L1I SPEC fills:          0  NON-SPEC fills:          0
L1I Test counter :          0
L1I Leapfrog:          0
L1I MSHR merge:       2983
L1I TOTAL     ACCESS:   35225308  HIT:   35219145  MISS:       6163  HIT %:    99.9825  MISS %:  0.0174959   MPKI: 0.030815
L1I LOAD      TOTAL       ACCESS:   35225308  HIT:   35219145  MISS:       6163  HIT %:    99.9825  MISS %:  0.0174959   MPKI: 0.030815
L1I LOAD      NON_SPEC    ACCESS:   35225308  HIT:   35219145  MISS:       6163  HIT %:    99.9825  MISS %:  0.0174959   MPKI: 0.030815
L1I PREFETCH  REQUESTED:          0  ISSUED:          0  USEFUL:          0  USELESS:          0
L1I USEFUL LOAD PREFETCHES:          0 PREFETCH ISSUED TO LOWER LEVEL:          0  ACCURACY: -nan
L1I TIMELY PREFETCHES:          0 LATE PREFETCHES: 0 DROPPED PREFETCHES: 0
L1I COMMIT LATE PREFETCHES: 0 MISSED OPPORTUNITY: 0 LATE IN PQ: 0 UNCOVERED: 0
L1I COMMIT LATE MSHR PREFETCHES: 0
L1I MPKI TOTAL: 0.04573 MSHR LATE: 0 PQ LATE: 0 COMMIT LATE: 0 MISSED OPPORTUNITY: 0 UNCOVERED: 0
L1I PREFETCHES SAME FILL-ORIGIN LEVEL: 0 DIFFERENT FILL-ORIGIN LEVEL: 0
L1I AVERAGE MISS LATENCY: 229.188 cycles
L1I AVERAGE MISS LATENCY LOAD: 229.188 cycles
L1I AVERAGE MISS LATENCY PREFETCH: -nan cycles
L1I AVERAGE MSHR OCCUPANCY: 0.000230866
L1I MSHR FULL: 0
L1I RQ	ACCESS:   52073121	FORWARD:          0	MERGED:   16844828	TO_CACHE:   35228293

BTB SPEC fills:          0  NON-SPEC fills:          0
BTB Test counter :          0
BTB Leapfrog:          0
BTB MSHR merge:          0
BTB TOTAL     ACCESS:    9141034  HIT:    9133637  MISS:       7397  HIT %:    99.9191  MISS %:  0.0809208   MPKI: 0.036985
BTB BRANCH_DIRECT_JUMP	ACCESS:     290387  HIT:     290283  MISS:        104
BTB BRANCH_INDIRECT	ACCESS:         12  HIT:          8  MISS:          4
BTB BRANCH_CONDITIONAL	ACCESS:    8250534  HIT:    8249659  MISS:        875
BTB BRANCH_DIRECT_CALL	ACCESS:     300051  HIT:     299561  MISS:        490
BTB BRANCH_INDIRECT_CALL	ACCESS:          0  HIT:          0  MISS:          0
BTB BRANCH_RETURN	ACCESS:     300050  HIT:     294126  MISS:       5924
BTB BRANCH_OTHER ACCESS:          0  HIT:          0  MISS:          0

L2C SPEC fills:          0  NON-SPEC fills:      10473
L2C Test counter :     523730
L2C Leapfrog:          0
L2C MSHR merge:      92654
L2C TOTAL     ACCESS:   13510760  HIT:   10372737  MISS:    3138023  HIT %:    76.7739  MISS %:    23.2261   MPKI: 15.6901
L2C LOAD      TOTAL       ACCESS:     960729  HIT:     561342  MISS:     399387  HIT %:    58.4288  MISS %:    41.5712   MPKI: 1.99693
L2C LOAD      NON_SPEC    ACCESS:      45632  HIT:      28996  MISS:      16636  HIT %:    63.5431  MISS %:    36.4569   MPKI: 0.08318
L2C LOAD      SPEC        ACCESS:     915097  HIT:     532346  MISS:     382751  HIT %:    58.1737  MISS %:    41.8263   MPKI: 1.91375
L2C RFO       NON_SPEC    ACCESS:     291188  HIT:     126266  MISS:     164922  HIT %:    43.3624  MISS %:    56.6376   MPKI: 0.82461
L2C PREFETCH  NON_SPEC    ACCESS:   10122479  HIT:    7822053  MISS:    2300426  HIT %:    77.2741  MISS %:    22.7259   MPKI: 11.5021
L2C WRITEBACK NON_SPEC    ACCESS:    1032493  HIT:    1030830  MISS:       1663  HIT %:    99.8389  MISS %:   0.161066   MPKI: 0.008315
L2C CLEAN_EVICTION NON_SPEC    ACCESS:     575078  HIT:     318117  MISS:     256961  HIT %:    55.3172  MISS %:    44.6828   MPKI: 1.2848
L2C COMMIT LOAD NON_SPEC    ACCESS:      59147  HIT:      49891  MISS:       9256  HIT %:    84.3509  MISS %:    15.6491   MPKI: 0.04628
L2C LOAD TRANSLATION NON_SPEC    ACCESS:      45016  HIT:      43116  MISS:       1900  HIT %:    95.7793  MISS %:    4.22072   MPKI: 0.0095
L2C TRANSLATION FROM L1D PREFETCHER NON_SPEC    ACCESS:     424630  HIT:     421122  MISS:       3508  HIT %:    99.1739  MISS %:   0.826131   MPKI: 0.01754
L2C PREFETCH  REQUESTED:          0  ISSUED:          0  USEFUL:     388114  USELESS:    1909872
L2C USEFUL LOAD PREFETCHES:     388114 PREFETCH ISSUED TO LOWER LEVEL:    2451703  ACCURACY: 15.8304
L2C TIMELY PREFETCHES:     388114 LATE PREFETCHES: 151276 DROPPED PREFETCHES: 0
L2C COMMIT LATE PREFETCHES: 0 MISSED OPPORTUNITY: 0 LATE IN PQ: 0 UNCOVERED: 0
L2C COMMIT LATE MSHR PREFETCHES: 0
L2C MPKI TOTAL: 1.99693 MSHR LATE: 0.75638 PQ LATE: 0 COMMIT LATE: 0 MISSED OPPORTUNITY: 0 UNCOVERED: 0
L2C PREFETCHES SAME FILL-ORIGIN LEVEL: 1436191 DIFFERENT FILL-ORIGIN LEVEL: 0
L2C AVERAGE MISS LATENCY: 239.697 cycles
L2C AVERAGE MISS LATENCY LOAD: 237.209 cycles
L2C AVERAGE MISS LATENCY PREFETCH: 256.273 cycles
L2C AVERAGE MSHR OCCUPANCY: 15.4718
L2C MSHR FULL: 0.359947
L2C RQ	ACCESS:    1781085	FORWARD:          0	MERGED:          0	TO_CACHE:    1780710
L2C WQ	ACCESS:    1607718	FORWARD:        463	MERGED:        147	TO_CACHE:    1607571
L2C PQ	ACCESS:   11772841	FORWARD:          0	MERGED:       8399	TO_CACHE:   11764354

L2C Instructions Evicting Data 6134
L2C Translations Evicting Data 5395
L2C Data Evicting Data 2474594
L2C Instructions Evicting Instructions 19
L2C Translations Evicting Instructions 8
L2C Data Evicting Instructions 5637
L2C Instructions Evicting Translations 10
L2C Translations Evicting Translations 5
L2C Data Evicting Translations 4846
L2C Dense regions hint from L2: 0
PSCL5 SPEC fills:          0  NON-SPEC fills:          0
PSCL5 Test counter :          0
PSCL5 Leapfrog:          0
PSCL5 MSHR merge:          0
PSCL5 TOTAL     ACCESS:          0  HIT:          0  MISS:          0  HIT %:       -nan  MISS %:       -nan   MPKI: 0
PSCL5 PREFETCH  REQUESTED:          0  ISSUED:          0  USEFUL:          0  USELESS:          0
PSCL5 USEFUL LOAD PREFETCHES:          0 PREFETCH ISSUED TO LOWER LEVEL:          0  ACCURACY: -nan
PSCL5 TIMELY PREFETCHES:          0 LATE PREFETCHES: 0 DROPPED PREFETCHES: 0
PSCL5 COMMIT LATE PREFETCHES: 0 MISSED OPPORTUNITY: 0 LATE IN PQ: 0 UNCOVERED: 0
PSCL5 COMMIT LATE MSHR PREFETCHES: 0
PSCL5 MPKI TOTAL: 0 MSHR LATE: 0 PQ LATE: 0 COMMIT LATE: 0 MISSED OPPORTUNITY: 0 UNCOVERED: 0
PSCL5 PREFETCHES SAME FILL-ORIGIN LEVEL: 0 DIFFERENT FILL-ORIGIN LEVEL: 0

PSCL4 SPEC fills:          0  NON-SPEC fills:          0
PSCL4 Test counter :          0
PSCL4 Leapfrog:          0
PSCL4 MSHR merge:          0
PSCL4 TOTAL     ACCESS:          0  HIT:          0  MISS:          0  HIT %:       -nan  MISS %:       -nan   MPKI: 0
PSCL4 PREFETCH  REQUESTED:          0  ISSUED:          0  USEFUL:          0  USELESS:          0
PSCL4 USEFUL LOAD PREFETCHES:          0 PREFETCH ISSUED TO LOWER LEVEL:          0  ACCURACY: -nan
PSCL4 TIMELY PREFETCHES:          0 LATE PREFETCHES: 0 DROPPED PREFETCHES: 0
PSCL4 COMMIT LATE PREFETCHES: 0 MISSED OPPORTUNITY: 0 LATE IN PQ: 0 UNCOVERED: 0
PSCL4 COMMIT LATE MSHR PREFETCHES: 0
PSCL4 MPKI TOTAL: 0 MSHR LATE: 0 PQ LATE: 0 COMMIT LATE: 0 MISSED OPPORTUNITY: 0 UNCOVERED: 0
PSCL4 PREFETCHES SAME FILL-ORIGIN LEVEL: 0 DIFFERENT FILL-ORIGIN LEVEL: 0

PSCL3 SPEC fills:          0  NON-SPEC fills:          0
PSCL3 Test counter :          0
PSCL3 Leapfrog:          0
PSCL3 MSHR merge:          0
PSCL3 TOTAL     ACCESS:          0  HIT:          0  MISS:          0  HIT %:       -nan  MISS %:       -nan   MPKI: 0
PSCL3 PREFETCH  REQUESTED:          0  ISSUED:          0  USEFUL:          0  USELESS:          0
PSCL3 USEFUL LOAD PREFETCHES:          0 PREFETCH ISSUED TO LOWER LEVEL:          0  ACCURACY: -nan
PSCL3 TIMELY PREFETCHES:          0 LATE PREFETCHES: 0 DROPPED PREFETCHES: 0
PSCL3 COMMIT LATE PREFETCHES: 0 MISSED OPPORTUNITY: 0 LATE IN PQ: 0 UNCOVERED: 0
PSCL3 COMMIT LATE MSHR PREFETCHES: 0
PSCL3 MPKI TOTAL: 0 MSHR LATE: 0 PQ LATE: 0 COMMIT LATE: 0 MISSED OPPORTUNITY: 0 UNCOVERED: 0
PSCL3 PREFETCHES SAME FILL-ORIGIN LEVEL: 0 DIFFERENT FILL-ORIGIN LEVEL: 0

PSCL2 SPEC fills:          0  NON-SPEC fills:          0
PSCL2 Test counter :          0
PSCL2 Leapfrog:          0
PSCL2 MSHR merge:          0
PSCL2 TOTAL     ACCESS:          0  HIT:          0  MISS:          0  HIT %:       -nan  MISS %:       -nan   MPKI: 0
PSCL2 PREFETCH  REQUESTED:          0  ISSUED:          0  USEFUL:          0  USELESS:          0
PSCL2 USEFUL LOAD PREFETCHES:          0 PREFETCH ISSUED TO LOWER LEVEL:          0  ACCURACY: -nan
PSCL2 TIMELY PREFETCHES:          0 LATE PREFETCHES: 0 DROPPED PREFETCHES: 0
PSCL2 COMMIT LATE PREFETCHES: 0 MISSED OPPORTUNITY: 0 LATE IN PQ: 0 UNCOVERED: 0
PSCL2 COMMIT LATE MSHR PREFETCHES: 0
PSCL2 MPKI TOTAL: 0 MSHR LATE: 0 PQ LATE: 0 COMMIT LATE: 0 MISSED OPPORTUNITY: 0 UNCOVERED: 0
PSCL2 PREFETCHES SAME FILL-ORIGIN LEVEL: 0 DIFFERENT FILL-ORIGIN LEVEL: 0

LLC SPEC fills:          0  NON-SPEC fills:       6627
LLC Test counter :     516269
LLC Leapfrog:          0
LLC MSHR merge:          0
LLC TOTAL     ACCESS:    4219577  HIT:    1659697  MISS:    2559880  HIT %:    39.3333  MISS %:    60.6667   MPKI: 12.7994
LLC LOAD      TOTAL       ACCESS:     306725  HIT:      24091  MISS:     282634  HIT %:    7.85427  MISS %:    92.1457   MPKI: 1.41317
LLC LOAD      NON_SPEC    ACCESS:      14174  HIT:       1384  MISS:      12790  HIT %:    9.76436  MISS %:    90.2356   MPKI: 0.06395
LLC LOAD      SPEC        ACCESS:     292551  HIT:      22707  MISS:     269844  HIT %:    7.76172  MISS %:    92.2383   MPKI: 1.34922
LLC RFO       NON_SPEC    ACCESS:     108315  HIT:       2104  MISS:     106211  HIT %:    1.94248  MISS %:    98.0575   MPKI: 0.531055
LLC PREFETCH  NON_SPEC    ACCESS:    2451694  HIT:     486340  MISS:    1965354  HIT %:    19.8369  MISS %:    80.1631   MPKI: 9.82677
LLC WRITEBACK NON_SPEC    ACCESS:     816464  HIT:     814028  MISS:       2436  HIT %:    99.7016  MISS %:    0.29836   MPKI: 0.01218
LLC CLEAN_EVICTION NON_SPEC    ACCESS:     523730  HIT:     330526  MISS:     193204  HIT %:      63.11  MISS %:      36.89   MPKI: 0.96602
LLC COMMIT LOAD NON_SPEC    ACCESS:       7241  HIT:       2185  MISS:       5056  HIT %:    30.1754  MISS %:    69.8246   MPKI: 0.02528
LLC LOAD TRANSLATION NON_SPEC    ACCESS:       1900  HIT:        255  MISS:       1645  HIT %:    13.4211  MISS %:    86.5789   MPKI: 0.008225
LLC TRANSLATION FROM L1D PREFETCHER NON_SPEC    ACCESS:       3508  HIT:        168  MISS:       3340  HIT %:    4.78905  MISS %:    95.2109   MPKI: 0.0167
LLC PREFETCH  REQUESTED:          0  ISSUED:          0  USEFUL:      18157  USELESS:    1935460
LLC USEFUL LOAD PREFETCHES:      18157 PREFETCH ISSUED TO LOWER LEVEL:    1965355  ACCURACY: 0.923853
LLC TIMELY PREFETCHES:      18157 LATE PREFETCHES: 0 DROPPED PREFETCHES: 0
LLC COMMIT LATE PREFETCHES: 0 MISSED OPPORTUNITY: 0 LATE IN PQ: 0 UNCOVERED: 0
LLC COMMIT LATE MSHR PREFETCHES: 0
LLC MPKI TOTAL: 1.41317 MSHR LATE: 0 PQ LATE: 0 COMMIT LATE: 0 MISSED OPPORTUNITY: 0 UNCOVERED: 0
LLC PREFETCHES SAME FILL-ORIGIN LEVEL: 0 DIFFERENT FILL-ORIGIN LEVEL: 0
LLC AVERAGE MISS LATENCY: 268.799 cycles
LLC AVERAGE MISS LATENCY LOAD: 227.909 cycles
LLC AVERAGE MISS LATENCY PREFETCH: 293.832 cycles
LLC AVERAGE MSHR OCCUPANCY: 6.63827
LLC MSHR FULL: 0
LLC RQ	ACCESS:     427697	FORWARD:          0	MERGED:          0	TO_CACHE:     427689
LLC WQ	ACCESS:    1340194	FORWARD:         16	MERGED:          0	TO_CACHE:    1340194
LLC PQ	ACCESS:    2451703	FORWARD:          0	MERGED:          0	TO_CACHE:    2451695

LLC Dense regions hint to LLC: 0

RAW hits: 185075
Loads Generated: 59115277
Loads sent to L1D: 58930199
Stores Generated: 10855291
Stores sent to L1D: 10855295
Major fault: 0 Minor fault: 10671
Allocated PAGES: 10671
Total Load insts: 73554471
Total Non-spec loads: 7873249
Percentage of speculative loads: 89.296

LeapFrogging counter: 1513038
Commit hits: 32050651 miss: 19646751
Commit hit %: 61.9966 miss %: 38.0034
Commits not translated: 0
Loads retired: 1076093
Stores retired: 10855295
Cache fills: 1076093
L1D response latency: 120.232 cycles
Load retirement latency: 311.555 cycles
OOO test counter: 0
Discarded buffer inserts: 32050651 hits: 23642 hit %: 0.0737645
LATENCY_FILL: 37.1388 1067757

DRAM Statistics
 CHANNEL 0
 RQ ROW_BUFFER_HIT:     617660  ROW_BUFFER_MISS:    1746396
 DBUS_CONGESTED:       1871
 WQ ROW_BUFFER_HIT:     245947  ROW_BUFFER_MISS:     877956  FULL:        470

 AVG_CONGESTED_CYCLE: 5
 All warmup complete: 2
Channel 0 Bank busy for read cycles: 0
Channel 0 Bank busy for write cycles: 0
Channel 0
Rank 0
0banks busy for read cycles: 102695881
0banks busy for write cycles: 74312
1banks busy for read cycles: 35077188
1banks busy for write cycles: 10159113
2banks busy for read cycles: 18575079
2banks busy for write cycles: 4079470
3banks busy for read cycles: 10838781
3banks busy for write cycles: 2289345
4banks busy for read cycles: 8437283
4banks busy for write cycles: 1583271
5banks busy for read cycles: 7054600
5banks busy for write cycles: 1304214
6banks busy for read cycles: 6256955
6banks busy for write cycles: 1306336
7banks busy for read cycles: 6048719
7banks busy for write cycles: 2916145
8banks busy for read cycles: 6644141
8banks busy for write cycles: 20038375

CPU 0 Branch Prediction Accuracy: 99.8685% MPKI: 0.079065 Average ROB Occupancy at Mispredict: 120.182
Branch types
NOT_BRANCH: 187976341 93.9882%
BRANCH_DIRECT_JUMP: 290387 0.145193%
BRANCH_INDIRECT: 12 6e-06%
BRANCH_CONDITIONAL: 11132877 5.56644%
BRANCH_DIRECT_CALL: 300051 0.150025%
BRANCH_INDIRECT_CALL: 0 0%
BRANCH_RETURN: 300050 0.150025%
BRANCH_OTHER: 0 0%

DRAM PAGES: 1048576
Allocated PAGES: 10671
