
*** ChampSim Multicore Out-of-Order Simulator ***

Warmup Instructions: 50000000
Simulation Instructions: 200000000
Number of CPUs: 1
LLC sets: 2048
LLC ways: 16
L0D sets: 16
L0D ways: 2
ROB size: 352
LQ size: 128
SQ size: 72
Secure Berti: OFF
Berti: OFF
Berti Fill: OFF
On commit prefetching: ON
Hit-based filter: ON
Time-guarding: ON
Free-slotting: ON
Leap-frogging: ON
Train prefetcher on L0D bypass: OFF
No translation penalty for prefetchers: OFF
Prefetch to L0D only: OFF
Prefetch to L1D only: OFF
Clean evictions: ON
Commit loads: ON
Commit write: ON
Fill commit loads to L2C, LLC: ON
DRAM IO FREQUENCY: 6400
ROB SIZE: 352
Off-chip DRAM Size: 4096 MB Channels: 1 Width: 64-bit Data Rate: 6400 MT/s
CPU 0 runs /home/sumon/secure_berti/GhostMinion/../../traces/spec/623.xalancbmk_s-202B.champsimtrace.xz
.xz
BTB has LRU replacement policy
ITLB has LRU replacement policy
DTLB has LRU replacement policy
STLB has LRU replacement policy
L1I has LRU replacement policy
L0D has LRU replacement policy
History Sets: 8
History Ways: 16
BERTI Size: 16
BERTI Stride Size: 16
L1D has LRU replacement policy
L2C has LRU replacement policy
LLC has LRU replacement policy
Heartbeat CPU 0 instructions: 10000001 cycles: 3893776 heartbeat IPC: 2.5682 cumulative IPC: 2.5682 (Simulation time: 0 hr 0 min 57 sec) 
Heartbeat CPU 0 instructions: 20000002 cycles: 7598943 heartbeat IPC: 2.69893 cumulative IPC: 2.63195 (Simulation time: 0 hr 1 min 57 sec) 
Heartbeat CPU 0 instructions: 30000001 cycles: 11302491 heartbeat IPC: 2.70011 cumulative IPC: 2.65428 (Simulation time: 0 hr 2 min 55 sec) 
Heartbeat CPU 0 instructions: 40000002 cycles: 15009280 heartbeat IPC: 2.69775 cumulative IPC: 2.66502 (Simulation time: 0 hr 3 min 34 sec) 
Heartbeat CPU 0 instructions: 50000001 cycles: 18714443 heartbeat IPC: 2.69894 cumulative IPC: 2.67173 (Simulation time: 0 hr 4 min 15 sec) 

Warmup complete CPU 0 instructions: 50000001 cycles: 18714443 (Simulation time: 0 hr 4 min 15 sec) 

Heartbeat CPU 0 instructions: 60000002 cycles: 29699044 heartbeat IPC: 0.910365 cumulative IPC: 0.910365 (Simulation time: 0 hr 5 min 0 sec) 
Heartbeat CPU 0 instructions: 70000000 cycles: 40685687 heartbeat IPC: 0.910196 cumulative IPC: 0.910281 (Simulation time: 0 hr 5 min 46 sec) 
Heartbeat CPU 0 instructions: 80000000 cycles: 51683006 heartbeat IPC: 0.909313 cumulative IPC: 0.909958 (Simulation time: 0 hr 6 min 33 sec) 
Heartbeat CPU 0 instructions: 90000001 cycles: 62592122 heartbeat IPC: 0.916665 cumulative IPC: 0.911625 (Simulation time: 0 hr 7 min 22 sec) 
Heartbeat CPU 0 instructions: 100000000 cycles: 73550072 heartbeat IPC: 0.912579 cumulative IPC: 0.911816 (Simulation time: 0 hr 8 min 10 sec) 
Heartbeat CPU 0 instructions: 110000000 cycles: 84506264 heartbeat IPC: 0.912726 cumulative IPC: 0.911967 (Simulation time: 0 hr 8 min 58 sec) 
Heartbeat CPU 0 instructions: 120000002 cycles: 95437519 heartbeat IPC: 0.914808 cumulative IPC: 0.912372 (Simulation time: 0 hr 9 min 44 sec) 
Heartbeat CPU 0 instructions: 130000001 cycles: 106444949 heartbeat IPC: 0.908477 cumulative IPC: 0.911883 (Simulation time: 0 hr 10 min 29 sec) 
Heartbeat CPU 0 instructions: 140000001 cycles: 117467087 heartbeat IPC: 0.907265 cumulative IPC: 0.911368 (Simulation time: 0 hr 11 min 15 sec) 
Heartbeat CPU 0 instructions: 150000001 cycles: 128459298 heartbeat IPC: 0.909735 cumulative IPC: 0.911204 (Simulation time: 0 hr 12 min 1 sec) 
Heartbeat CPU 0 instructions: 160000000 cycles: 139387544 heartbeat IPC: 0.91506 cumulative IPC: 0.911554 (Simulation time: 0 hr 12 min 46 sec) 
Heartbeat CPU 0 instructions: 170000001 cycles: 150347278 heartbeat IPC: 0.912431 cumulative IPC: 0.911627 (Simulation time: 0 hr 13 min 31 sec) 
Heartbeat CPU 0 instructions: 180000000 cycles: 161412798 heartbeat IPC: 0.903708 cumulative IPC: 0.911013 (Simulation time: 0 hr 14 min 16 sec) 
Heartbeat CPU 0 instructions: 190000002 cycles: 172344901 heartbeat IPC: 0.914737 cumulative IPC: 0.911278 (Simulation time: 0 hr 15 min 2 sec) 
Heartbeat CPU 0 instructions: 200000002 cycles: 183334561 heartbeat IPC: 0.909946 cumulative IPC: 0.911189 (Simulation time: 0 hr 15 min 46 sec) 
Heartbeat CPU 0 instructions: 210000003 cycles: 194264737 heartbeat IPC: 0.914898 cumulative IPC: 0.91142 (Simulation time: 0 hr 16 min 27 sec) 
Heartbeat CPU 0 instructions: 220000000 cycles: 205254611 heartbeat IPC: 0.909928 cumulative IPC: 0.911332 (Simulation time: 0 hr 17 min 8 sec) 
Heartbeat CPU 0 instructions: 230000001 cycles: 216135188 heartbeat IPC: 0.919069 cumulative IPC: 0.911758 (Simulation time: 0 hr 17 min 48 sec) 
Heartbeat CPU 0 instructions: 240000000 cycles: 227019898 heartbeat IPC: 0.91872 cumulative IPC: 0.912122 (Simulation time: 0 hr 18 min 27 sec) 
Heartbeat CPU 0 instructions: 250000001 cycles: 237963935 heartbeat IPC: 0.91374 cumulative IPC: 0.912203 (Simulation time: 0 hr 19 min 4 sec) 
Finished CPU 0 instructions: 200000000 cycles: 219249492 cumulative IPC: 0.912203 (Simulation time: 0 hr 19 min 4 sec) 
 Instruction ID: 250000047

ChampSim completed all CPUs

Region of Interest Statistics

CPU 0 cumulative IPC: 0.912203 instructions: 200000000 cycles: 219249492
ITLB SPEC fills:          0  NON-SPEC fills:          0
ITLB Test counter :          0
ITLB Leapfrog:          0
ITLB MSHR merge:          0
ITLB TOTAL     ACCESS:   28326771  HIT:   28326771  MISS:          0  HIT %:        100  MISS %:          0   MPKI: 0
ITLB LOAD TRANSLATION NON_SPEC    ACCESS:   28326771  HIT:   28326771  MISS:          0  HIT %:        100  MISS %:          0   MPKI: 0
ITLB PREFETCH  REQUESTED:          0  ISSUED:          0  USEFUL:          0  USELESS:          0
ITLB USEFUL LOAD PREFETCHES:          0 PREFETCH ISSUED TO LOWER LEVEL:          0  ACCURACY: -nan
ITLB TIMELY PREFETCHES:          0 LATE PREFETCHES: 0 DROPPED PREFETCHES: 0
ITLB COMMIT LATE PREFETCHES: 0 MISSED OPPORTUNITY: 0 LATE IN PQ: 0 UNCOVERED: 0
ITLB COMMIT LATE MSHR PREFETCHES: 0
ITLB MPKI TOTAL: 0 MSHR LATE: 0 PQ LATE: 0 COMMIT LATE: 0 MISSED OPPORTUNITY: 0 UNCOVERED: 0
ITLB PREFETCHES SAME FILL-ORIGIN LEVEL: 0 DIFFERENT FILL-ORIGIN LEVEL: 0
ITLB AVERAGE MISS LATENCY: -nan cycles
ITLB AVERAGE MISS LATENCY LOAD: -nan cycles
ITLB AVERAGE MISS LATENCY PREFETCH: -nan cycles
ITLB AVERAGE MSHR OCCUPANCY: 0
ITLB MSHR FULL: 0
ITLB RQ	ACCESS:   35401485	FORWARD:          0	MERGED:    7074715	TO_CACHE:   28326770

DTLB SPEC fills:          0  NON-SPEC fills:          0
DTLB Test counter :          0
DTLB Leapfrog:          0
DTLB MSHR merge:          0
DTLB TOTAL     ACCESS:   42605091  HIT:   42517352  MISS:      87739  HIT %:    99.7941  MISS %:   0.205935   MPKI: 0.438695
DTLB LOAD TRANSLATION NON_SPEC    ACCESS:   42605091  HIT:   42517352  MISS:      87739  HIT %:    99.7941  MISS %:   0.205935   MPKI: 0.438695
DTLB PREFETCH  REQUESTED:          0  ISSUED:          0  USEFUL:          0  USELESS:          0
DTLB USEFUL LOAD PREFETCHES:          0 PREFETCH ISSUED TO LOWER LEVEL:          0  ACCURACY: -nan
DTLB TIMELY PREFETCHES:          0 LATE PREFETCHES: 0 DROPPED PREFETCHES: 0
DTLB COMMIT LATE PREFETCHES: 0 MISSED OPPORTUNITY: 0 LATE IN PQ: 0 UNCOVERED: 0
DTLB COMMIT LATE MSHR PREFETCHES: 0
DTLB MPKI TOTAL: 0 MSHR LATE: 0 PQ LATE: 0 COMMIT LATE: 0 MISSED OPPORTUNITY: 0 UNCOVERED: 0
DTLB PREFETCHES SAME FILL-ORIGIN LEVEL: 0 DIFFERENT FILL-ORIGIN LEVEL: 0
DTLB AVERAGE MISS LATENCY: 5.13281 cycles
DTLB AVERAGE MISS LATENCY LOAD: -nan cycles
DTLB AVERAGE MISS LATENCY PREFETCH: -nan cycles
DTLB AVERAGE MSHR OCCUPANCY: 0.000646444
DTLB MSHR FULL: 0
DTLB RQ	ACCESS:   47259712	FORWARD:          0	MERGED:    4654349	TO_CACHE:   42605363

STLB SPEC fills:          0  NON-SPEC fills:          0
STLB Test counter :          0
STLB Leapfrog:          0
STLB MSHR merge:          0
STLB TOTAL     ACCESS:    9676635  HIT:    9676453  MISS:        182  HIT %:    99.9981  MISS %: 0.00188082   MPKI: 0.00091
STLB LOAD TRANSLATION NON_SPEC    ACCESS:      87739  HIT:      87557  MISS:        182  HIT %:    99.7926  MISS %:   0.207433   MPKI: 0.00091
STLB TRANSLATION FROM L1D PREFETCHER NON_SPEC    ACCESS:    9588896  HIT:    9588896  MISS:          0  HIT %:        100  MISS %:          0   MPKI: 0
STLB PREFETCH  REQUESTED:          0  ISSUED:          0  USEFUL:          0  USELESS:          0
STLB USEFUL LOAD PREFETCHES:          0 PREFETCH ISSUED TO LOWER LEVEL:          0  ACCURACY: -nan
STLB TIMELY PREFETCHES:          0 LATE PREFETCHES: 1 DROPPED PREFETCHES: 642531
STLB COMMIT LATE PREFETCHES: 0 MISSED OPPORTUNITY: 0 LATE IN PQ: 0 UNCOVERED: 0
STLB COMMIT LATE MSHR PREFETCHES: 0
STLB MPKI TOTAL: 0 MSHR LATE: 5e-06 PQ LATE: 0 COMMIT LATE: 0 MISSED OPPORTUNITY: 0 UNCOVERED: 0
STLB PREFETCHES SAME FILL-ORIGIN LEVEL: 0 DIFFERENT FILL-ORIGIN LEVEL: 0
STLB AVERAGE MISS LATENCY: 459.604 cycles
STLB AVERAGE MISS LATENCY LOAD: -nan cycles
STLB AVERAGE MISS LATENCY PREFETCH: -nan cycles
STLB AVERAGE MSHR OCCUPANCY: 0.207678
STLB MSHR FULL: 0
STLB RQ	ACCESS:   40713056	FORWARD:          0	MERGED:   30393244	TO_CACHE:   10319812

STLB Hit, L1D data hit: 0
STLB Hit, L2C data hit: 0
STLB Hit, LLC data hit: 0
STLB Hit, LLC data miss: 0
STLB STLB hints to L2: 0
L0D SPEC fills:   28989493  NON-SPEC fills:          0
L0D TimeGuard Request with older TS:     111815 Restricted eviction:      17142 read:       2663
L0D Test counter :          0
L0D Leapfrog:          0
L0D MSHR merge:    1448556
L0D TOTAL     ACCESS:   42272433  HIT:    5802178  MISS:   36470255  HIT %:    13.7257  MISS %:    86.2743   MPKI: 182.351
L0D LOAD      TOTAL       ACCESS:   42272433  HIT:    5802178  MISS:   36470255  HIT %:    13.7257  MISS %:    86.2743   MPKI: 182.351
L0D LOAD      NON_SPEC    ACCESS:    7532284  HIT:      68664  MISS:    7463620  HIT %:   0.911596  MISS %:    99.0884   MPKI: 37.3181
L0D LOAD      SPEC        ACCESS:   34740149  HIT:    5733514  MISS:   29006635  HIT %:     16.504  MISS %:     83.496   MPKI: 145.033
L0D PREFETCH  REQUESTED:          0  ISSUED:          0  USEFUL:          0  USELESS:          0
L0D USEFUL LOAD PREFETCHES:          0 PREFETCH ISSUED TO LOWER LEVEL:          0  ACCURACY: -nan
L0D TIMELY PREFETCHES:          0 LATE PREFETCHES: 0 DROPPED PREFETCHES: 0
L0D COMMIT LATE PREFETCHES: 0 MISSED OPPORTUNITY: 0 LATE IN PQ: 0 UNCOVERED: 0
L0D COMMIT LATE MSHR PREFETCHES: 0
L0D MPKI TOTAL: 189.594 MSHR LATE: 0 PQ LATE: 0 COMMIT LATE: 0 MISSED OPPORTUNITY: 0 UNCOVERED: 0
L0D PREFETCHES SAME FILL-ORIGIN LEVEL: 0 DIFFERENT FILL-ORIGIN LEVEL: 0
L0D AVERAGE MISS LATENCY: 5.24845 cycles
L0D AVERAGE MISS LATENCY LOAD: 5.24845 cycles
L0D AVERAGE MISS LATENCY PREFETCH: -nan cycles
L0D AVERAGE MSHR OCCUPANCY: 0.549821
L0D MSHR FULL: 0
L0D RQ	ACCESS:   59779883	FORWARD:          0	MERGED:   16058896	TO_CACHE:   43720987
L0D WQ	ACCESS:    3538725	FORWARD:          0	MERGED:          0	TO_CACHE:    3538725

L1D SPEC fills:          0  NON-SPEC fills:      31159
L1D Test counter :      36089
L1D Leapfrog:          0
L1D MSHR merge:       7515
L1D TOTAL     ACCESS:   77915487  HIT:   72619581  MISS:    5295906  HIT %:     93.203  MISS %:    6.79699   MPKI: 26.4795
L1D LOAD      TOTAL       ACCESS:   36470244  HIT:   36345824  MISS:     124420  HIT %:    99.6588  MISS %:   0.341155   MPKI: 0.6221
L1D LOAD      NON_SPEC    ACCESS:    7463618  HIT:    7432459  MISS:      31159  HIT %:    99.5825  MISS %:   0.417478   MPKI: 0.155795
L1D LOAD      SPEC        ACCESS:   29006626  HIT:   28913365  MISS:      93261  HIT %:    99.6785  MISS %:   0.321516   MPKI: 0.466305
L1D RFO       NON_SPEC    ACCESS:    3538725  HIT:    3538725  MISS:          0  HIT %:        100  MISS %:          0   MPKI: 0
L1D PREFETCH  NON_SPEC    ACCESS:   37777251  HIT:   32698791  MISS:    5078460  HIT %:    86.5568  MISS %:    13.4432   MPKI: 25.3923
L1D COMMIT LOAD NON_SPEC    ACCESS:      34912  HIT:      34684  MISS:        228  HIT %:    99.3469  MISS %:   0.653071   MPKI: 0.00114
L1D COMMIT WRITE NON_SPEC    ACCESS:      94355  HIT:       1557  MISS:      92798  HIT %:    1.65015  MISS %:    98.3498   MPKI: 0.46399
L1D PREFETCH  REQUESTED:  136113336  ISSUED:  102363339  USEFUL:    4941804  USELESS:     136697
L1D USEFUL LOAD PREFETCHES:    4941804 PREFETCH ISSUED TO LOWER LEVEL:    7059664  ACCURACY: 70.0006
L1D TIMELY PREFETCHES:    4941804 LATE PREFETCHES: 7504 DROPPED PREFETCHES: 651930
L1D COMMIT LATE PREFETCHES: 0 MISSED OPPORTUNITY: 0 LATE IN PQ: 0 UNCOVERED: 0
L1D COMMIT LATE MSHR PREFETCHES: 0
L1D MPKI TOTAL: 0.622155 MSHR LATE: 0.03752 PQ LATE: 0 COMMIT LATE: 0 MISSED OPPORTUNITY: 0 UNCOVERED: 0
L1D PREFETCHES SAME FILL-ORIGIN LEVEL: 5085970 DIFFERENT FILL-ORIGIN LEVEL: 1973694
L1D AVERAGE MISS LATENCY: 105.144 cycles
L1D AVERAGE MISS LATENCY LOAD: 38.1583 cycles
L1D AVERAGE MISS LATENCY PREFETCH: 108.708 cycles
L1D AVERAGE MSHR OCCUPANCY: 2.3552
L1D MSHR FULL: 0.00115158
L1D RQ	ACCESS:   36523827	FORWARD:          0	MERGED:      18649	TO_CACHE:   36505178
L1D WQ	ACCESS:    3633080	FORWARD:          0	MERGED:          0	TO_CACHE:    3633080
L1D PQ	ACCESS:  102363339	FORWARD:          0	MERGED:   61738022	TO_CACHE:   40625317

L1D UNIQUE REGIONS ACCESSED: 0
L1D REGIONS CONFLICTS: 0
L1D Cross Page Prefetch Requests: 52016795
L1D Same Page Prefetch Requests: 77949501
L1D ROI Sum of L1D PQ occupancy: 1040869820
L1D PREFETCHES PUSHED FROM L2C: 0
L1I SPEC fills:          0  NON-SPEC fills:          0
L1I Test counter :          0
L1I Leapfrog:          0
L1I MSHR merge:          0
L1I TOTAL     ACCESS:   35401486  HIT:   35401486  MISS:          0  HIT %:        100  MISS %:          0   MPKI: 0
L1I LOAD      TOTAL       ACCESS:   35401486  HIT:   35401486  MISS:          0  HIT %:        100  MISS %:          0   MPKI: 0
L1I LOAD      NON_SPEC    ACCESS:   35401486  HIT:   35401486  MISS:          0  HIT %:        100  MISS %:          0   MPKI: 0
L1I PREFETCH  REQUESTED:          0  ISSUED:          0  USEFUL:          0  USELESS:          0
L1I USEFUL LOAD PREFETCHES:          0 PREFETCH ISSUED TO LOWER LEVEL:          0  ACCURACY: -nan
L1I TIMELY PREFETCHES:          0 LATE PREFETCHES: 0 DROPPED PREFETCHES: 0
L1I COMMIT LATE PREFETCHES: 0 MISSED OPPORTUNITY: 0 LATE IN PQ: 0 UNCOVERED: 0
L1I COMMIT LATE MSHR PREFETCHES: 0
L1I MPKI TOTAL: 0 MSHR LATE: 0 PQ LATE: 0 COMMIT LATE: 0 MISSED OPPORTUNITY: 0 UNCOVERED: 0
L1I PREFETCHES SAME FILL-ORIGIN LEVEL: 0 DIFFERENT FILL-ORIGIN LEVEL: 0
L1I AVERAGE MISS LATENCY: -nan cycles
L1I AVERAGE MISS LATENCY LOAD: -nan cycles
L1I AVERAGE MISS LATENCY PREFETCH: -nan cycles
L1I AVERAGE MSHR OCCUPANCY: 0
L1I MSHR FULL: 0
L1I RQ	ACCESS:   65989561	FORWARD:          0	MERGED:   30588076	TO_CACHE:   35401485

BTB SPEC fills:          0  NON-SPEC fills:          0
BTB Test counter :          0
BTB Leapfrog:          0
BTB MSHR merge:          0
BTB TOTAL     ACCESS:   34960369  HIT:   34960352  MISS:         17  HIT %:        100  MISS %: 4.86265e-05   MPKI: 8.5e-05
BTB BRANCH_DIRECT_JUMP	ACCESS:        138  HIT:        137  MISS:          1
BTB BRANCH_INDIRECT	ACCESS:          0  HIT:          0  MISS:          0
BTB BRANCH_CONDITIONAL	ACCESS:   31422478  HIT:   31422469  MISS:          9
BTB BRANCH_DIRECT_CALL	ACCESS:     884507  HIT:     884505  MISS:          2
BTB BRANCH_INDIRECT_CALL	ACCESS:     884370  HIT:     884369  MISS:          1
BTB BRANCH_RETURN	ACCESS:    1768876  HIT:    1768872  MISS:          4
BTB BRANCH_OTHER ACCESS:          0  HIT:          0  MISS:          0

L2C SPEC fills:          0  NON-SPEC fills:       5527
L2C Test counter :      35842
L2C Leapfrog:          0
L2C MSHR merge:        189
L2C TOTAL     ACCESS:   10387550  HIT:    5350220  MISS:    5037330  HIT %:    51.5061  MISS %:    48.4939   MPKI: 25.1867
L2C LOAD      TOTAL       ACCESS:     116713  HIT:      82621  MISS:      34092  HIT %:    70.7899  MISS %:    29.2101   MPKI: 0.17046
L2C LOAD      NON_SPEC    ACCESS:      30637  HIT:      25110  MISS:       5527  HIT %:    81.9597  MISS %:    18.0403   MPKI: 0.027635
L2C LOAD      SPEC        ACCESS:      86076  HIT:      57511  MISS:      28565  HIT %:    66.8142  MISS %:    33.1858   MPKI: 0.142825
L2C PREFETCH  NON_SPEC    ACCESS:    7020812  HIT:    2047037  MISS:    4973775  HIT %:    29.1567  MISS %:    70.8433   MPKI: 24.8689
L2C WRITEBACK NON_SPEC    ACCESS:        137  HIT:        137  MISS:          0  HIT %:        100  MISS %:          0   MPKI: 0
L2C CLEAN_EVICTION NON_SPEC    ACCESS:      36089  HIT:       7620  MISS:      28469  HIT %:    21.1145  MISS %:    78.8855   MPKI: 0.142345
L2C COMMIT LOAD NON_SPEC    ACCESS:        228  HIT:        168  MISS:         60  HIT %:    73.6842  MISS %:    26.3158   MPKI: 0.0003
L2C LOAD TRANSLATION NON_SPEC    ACCESS:        910  HIT:        753  MISS:        157  HIT %:    82.7473  MISS %:    17.2527   MPKI: 0.000785
L2C TRANSLATION FROM L1D PREFETCHER NON_SPEC    ACCESS:    3212661  HIT:    3211884  MISS:        777  HIT %:    99.9758  MISS %:  0.0241856   MPKI: 0.003885
L2C PREFETCH  REQUESTED:          0  ISSUED:          0  USEFUL:      40883  USELESS:    4933653
L2C USEFUL LOAD PREFETCHES:      40883 PREFETCH ISSUED TO LOWER LEVEL:    4973968  ACCURACY: 0.821939
L2C TIMELY PREFETCHES:      40883 LATE PREFETCHES: 189 DROPPED PREFETCHES: 0
L2C COMMIT LATE PREFETCHES: 0 MISSED OPPORTUNITY: 0 LATE IN PQ: 0 UNCOVERED: 0
L2C COMMIT LATE MSHR PREFETCHES: 0
L2C MPKI TOTAL: 0.17046 MSHR LATE: 0.000945 PQ LATE: 0 COMMIT LATE: 0 MISSED OPPORTUNITY: 0 UNCOVERED: 0
L2C PREFETCHES SAME FILL-ORIGIN LEVEL: 956609 DIFFERENT FILL-ORIGIN LEVEL: 0
L2C AVERAGE MISS LATENCY: 117.601 cycles
L2C AVERAGE MISS LATENCY LOAD: 85.8714 cycles
L2C AVERAGE MISS LATENCY PREFETCH: 118.482 cycles
L2C AVERAGE MSHR OCCUPANCY: 3.82215
L2C MSHR FULL: 3.60304e-06
L2C RQ	ACCESS:    3330716	FORWARD:          0	MERGED:          0	TO_CACHE:    3330513
L2C WQ	ACCESS:      36226	FORWARD:        203	MERGED:          0	TO_CACHE:      36226
L2C PQ	ACCESS:    7059655	FORWARD:          0	MERGED:         21	TO_CACHE:    7059634

L2C Instructions Evicting Data 0
L2C Translations Evicting Data 934
L2C Data Evicting Data 4978425
L2C Instructions Evicting Instructions 0
L2C Translations Evicting Instructions 0
L2C Data Evicting Instructions 0
L2C Instructions Evicting Translations 0
L2C Translations Evicting Translations 0
L2C Data Evicting Translations 937
L2C Dense regions hint from L2: 0
PSCL5 SPEC fills:          0  NON-SPEC fills:          0
PSCL5 Test counter :          0
PSCL5 Leapfrog:          0
PSCL5 MSHR merge:          0
PSCL5 TOTAL     ACCESS:          0  HIT:          0  MISS:          0  HIT %:       -nan  MISS %:       -nan   MPKI: 0
PSCL5 PREFETCH  REQUESTED:          0  ISSUED:          0  USEFUL:          0  USELESS:          0
PSCL5 USEFUL LOAD PREFETCHES:          0 PREFETCH ISSUED TO LOWER LEVEL:          0  ACCURACY: -nan
PSCL5 TIMELY PREFETCHES:          0 LATE PREFETCHES: 0 DROPPED PREFETCHES: 0
PSCL5 COMMIT LATE PREFETCHES: 0 MISSED OPPORTUNITY: 0 LATE IN PQ: 0 UNCOVERED: 0
PSCL5 COMMIT LATE MSHR PREFETCHES: 0
PSCL5 MPKI TOTAL: 0 MSHR LATE: 0 PQ LATE: 0 COMMIT LATE: 0 MISSED OPPORTUNITY: 0 UNCOVERED: 0
PSCL5 PREFETCHES SAME FILL-ORIGIN LEVEL: 0 DIFFERENT FILL-ORIGIN LEVEL: 0

PSCL4 SPEC fills:          0  NON-SPEC fills:          0
PSCL4 Test counter :          0
PSCL4 Leapfrog:          0
PSCL4 MSHR merge:          0
PSCL4 TOTAL     ACCESS:          0  HIT:          0  MISS:          0  HIT %:       -nan  MISS %:       -nan   MPKI: 0
PSCL4 PREFETCH  REQUESTED:          0  ISSUED:          0  USEFUL:          0  USELESS:          0
PSCL4 USEFUL LOAD PREFETCHES:          0 PREFETCH ISSUED TO LOWER LEVEL:          0  ACCURACY: -nan
PSCL4 TIMELY PREFETCHES:          0 LATE PREFETCHES: 0 DROPPED PREFETCHES: 0
PSCL4 COMMIT LATE PREFETCHES: 0 MISSED OPPORTUNITY: 0 LATE IN PQ: 0 UNCOVERED: 0
PSCL4 COMMIT LATE MSHR PREFETCHES: 0
PSCL4 MPKI TOTAL: 0 MSHR LATE: 0 PQ LATE: 0 COMMIT LATE: 0 MISSED OPPORTUNITY: 0 UNCOVERED: 0
PSCL4 PREFETCHES SAME FILL-ORIGIN LEVEL: 0 DIFFERENT FILL-ORIGIN LEVEL: 0

PSCL3 SPEC fills:          0  NON-SPEC fills:          0
PSCL3 Test counter :          0
PSCL3 Leapfrog:          0
PSCL3 MSHR merge:          0
PSCL3 TOTAL     ACCESS:          0  HIT:          0  MISS:          0  HIT %:       -nan  MISS %:       -nan   MPKI: 0
PSCL3 PREFETCH  REQUESTED:          0  ISSUED:          0  USEFUL:          0  USELESS:          0
PSCL3 USEFUL LOAD PREFETCHES:          0 PREFETCH ISSUED TO LOWER LEVEL:          0  ACCURACY: -nan
PSCL3 TIMELY PREFETCHES:          0 LATE PREFETCHES: 0 DROPPED PREFETCHES: 0
PSCL3 COMMIT LATE PREFETCHES: 0 MISSED OPPORTUNITY: 0 LATE IN PQ: 0 UNCOVERED: 0
PSCL3 COMMIT LATE MSHR PREFETCHES: 0
PSCL3 MPKI TOTAL: 0 MSHR LATE: 0 PQ LATE: 0 COMMIT LATE: 0 MISSED OPPORTUNITY: 0 UNCOVERED: 0
PSCL3 PREFETCHES SAME FILL-ORIGIN LEVEL: 0 DIFFERENT FILL-ORIGIN LEVEL: 0

PSCL2 SPEC fills:          0  NON-SPEC fills:          0
PSCL2 Test counter :          0
PSCL2 Leapfrog:          0
PSCL2 MSHR merge:          0
PSCL2 TOTAL     ACCESS:          0  HIT:          0  MISS:          0  HIT %:       -nan  MISS %:       -nan   MPKI: 0
PSCL2 PREFETCH  REQUESTED:          0  ISSUED:          0  USEFUL:          0  USELESS:          0
PSCL2 USEFUL LOAD PREFETCHES:          0 PREFETCH ISSUED TO LOWER LEVEL:          0  ACCURACY: -nan
PSCL2 TIMELY PREFETCHES:          0 LATE PREFETCHES: 0 DROPPED PREFETCHES: 0
PSCL2 COMMIT LATE PREFETCHES: 0 MISSED OPPORTUNITY: 0 LATE IN PQ: 0 UNCOVERED: 0
PSCL2 COMMIT LATE MSHR PREFETCHES: 0
PSCL2 MPKI TOTAL: 0 MSHR LATE: 0 PQ LATE: 0 COMMIT LATE: 0 MISSED OPPORTUNITY: 0 UNCOVERED: 0
PSCL2 PREFETCHES SAME FILL-ORIGIN LEVEL: 0 DIFFERENT FILL-ORIGIN LEVEL: 0

LLC SPEC fills:          0  NON-SPEC fills:       3616
LLC Test counter :      29337
LLC Leapfrog:          0
LLC MSHR merge:          0
LLC TOTAL     ACCESS:    5044821  HIT:    1039392  MISS:    4005429  HIT %:    20.6031  MISS %:    79.3969   MPKI: 20.0271
LLC LOAD      TOTAL       ACCESS:      33896  HIT:      11985  MISS:      21911  HIT %:    35.3582  MISS %:    64.6418   MPKI: 0.109555
LLC LOAD      NON_SPEC    ACCESS:       5417  HIT:       1801  MISS:       3616  HIT %:    33.2472  MISS %:    66.7528   MPKI: 0.01808
LLC LOAD      SPEC        ACCESS:      28479  HIT:      10184  MISS:      18295  HIT %:    35.7597  MISS %:    64.2403   MPKI: 0.091475
LLC PREFETCH  NON_SPEC    ACCESS:    4973964  HIT:    1010739  MISS:    3963225  HIT %:    20.3206  MISS %:    79.6794   MPKI: 19.8161
LLC WRITEBACK NON_SPEC    ACCESS:        125  HIT:        125  MISS:          0  HIT %:        100  MISS %:          0   MPKI: 0
LLC CLEAN_EVICTION NON_SPEC    ACCESS:      35842  HIT:      16260  MISS:      19582  HIT %:    45.3658  MISS %:    54.6342   MPKI: 0.09791
LLC COMMIT LOAD NON_SPEC    ACCESS:         60  HIT:         13  MISS:         47  HIT %:    21.6667  MISS %:    78.3333   MPKI: 0.000235
LLC LOAD TRANSLATION NON_SPEC    ACCESS:        157  HIT:         38  MISS:        119  HIT %:    24.2038  MISS %:    75.7962   MPKI: 0.000595
LLC TRANSLATION FROM L1D PREFETCHER NON_SPEC    ACCESS:        777  HIT:        232  MISS:        545  HIT %:    29.8584  MISS %:    70.1416   MPKI: 0.002725
LLC PREFETCH  REQUESTED:          0  ISSUED:          0  USEFUL:       4025  USELESS:    3960104
LLC USEFUL LOAD PREFETCHES:       4025 PREFETCH ISSUED TO LOWER LEVEL:    3963229  ACCURACY: 0.101559
LLC TIMELY PREFETCHES:       4025 LATE PREFETCHES: 0 DROPPED PREFETCHES: 0
LLC COMMIT LATE PREFETCHES: 0 MISSED OPPORTUNITY: 0 LATE IN PQ: 0 UNCOVERED: 0
LLC COMMIT LATE MSHR PREFETCHES: 0
LLC MPKI TOTAL: 0.109555 MSHR LATE: 0 PQ LATE: 0 COMMIT LATE: 0 MISSED OPPORTUNITY: 0 UNCOVERED: 0
LLC PREFETCHES SAME FILL-ORIGIN LEVEL: 0 DIFFERENT FILL-ORIGIN LEVEL: 0
LLC AVERAGE MISS LATENCY: 110.453 cycles
LLC AVERAGE MISS LATENCY LOAD: 98.3416 cycles
LLC AVERAGE MISS LATENCY PREFETCH: 111.051 cycles
LLC AVERAGE MSHR OCCUPANCY: 1.326
LLC MSHR FULL: 0
LLC RQ	ACCESS:      34897	FORWARD:          0	MERGED:          0	TO_CACHE:      34890
LLC WQ	ACCESS:      35967	FORWARD:          7	MERGED:          0	TO_CACHE:      35967
LLC PQ	ACCESS:    4973968	FORWARD:          0	MERGED:          0	TO_CACHE:    4973968

LLC Dense regions hint to LLC: 0

RAW hits: 11
Loads Generated: 59779896
Loads sent to L1D: 59779883
Stores Generated: 3538724
Stores sent to L1D: 3538725
Major fault: 0 Minor fault: 1485
Allocated PAGES: 1485
Total Load insts: 74725643
Total Non-spec loads: 7880085
Percentage of speculative loads: 89.4547

LeapFrogging counter: 1049
Commit hits: 28921009 miss: 23326258
Commit hit %: 55.3541 miss %: 44.6459
Commits not translated: 0
Loads retired: 124420
Stores retired: 3538725
Cache fills: 124420
L1D response latency: 38.1583 cycles
Load retirement latency: 66.9134 cycles
OOO test counter: 0
Discarded buffer inserts: 28921009 hits: 7759 hit %: 0.0268282
LATENCY_FILL: 4.83712 91284

DRAM Statistics
 CHANNEL 0
 RQ ROW_BUFFER_HIT:    2950996  ROW_BUFFER_MISS:    1034740
 DBUS_CONGESTED:       6653
 WQ ROW_BUFFER_HIT:      15089  ROW_BUFFER_MISS:      14312  FULL:          0

 AVG_CONGESTED_CYCLE: 4
 All warmup complete: 2
Channel 0 Bank busy for read cycles: 0
Channel 0 Bank busy for write cycles: 0
Channel 0
Rank 0
0banks busy for read cycles: 80298791
0banks busy for write cycles: 8808
1banks busy for read cycles: 43258459
1banks busy for write cycles: 4208806
2banks busy for read cycles: 30640605
2banks busy for write cycles: 2046340
3banks busy for read cycles: 23729910
3banks busy for write cycles: 1529779
4banks busy for read cycles: 16404171
4banks busy for write cycles: 2387768
5banks busy for read cycles: 7598860
5banks busy for write cycles: 970618
6banks busy for read cycles: 2392920
6banks busy for write cycles: 728475
7banks busy for read cycles: 802031
7banks busy for write cycles: 661343
8banks busy for read cycles: 436379
8banks busy for write cycles: 1145430

CPU 0 Branch Prediction Accuracy: 99.9949% MPKI: 0.01412 Average ROB Occupancy at Mispredict: 45.5255
Branch types
NOT_BRANCH: 144641709 72.3209%
BRANCH_DIRECT_JUMP: 138 6.9e-05%
BRANCH_INDIRECT: 0 0%
BRANCH_CONDITIONAL: 51820077 25.91%
BRANCH_DIRECT_CALL: 884507 0.442254%
BRANCH_INDIRECT_CALL: 884370 0.442185%
BRANCH_RETURN: 1768876 0.884438%
BRANCH_OTHER: 0 0%

DRAM PAGES: 1048576
Allocated PAGES: 1485
