
*** ChampSim Multicore Out-of-Order Simulator ***

Warmup Instructions: 50000000
Simulation Instructions: 200000000
Number of CPUs: 1
LLC sets: 2048
LLC ways: 16
L0D sets: 16
L0D ways: 2
ROB size: 352
LQ size: 128
SQ size: 72
Secure Berti: OFF
Berti: OFF
Berti Fill: OFF
On commit prefetching: ON
Hit-based filter: ON
Time-guarding: ON
Free-slotting: ON
Leap-frogging: ON
Train prefetcher on L0D bypass: OFF
No translation penalty for prefetchers: OFF
Prefetch to L0D only: OFF
Prefetch to L1D only: OFF
Clean evictions: ON
Commit loads: ON
Commit write: ON
Fill commit loads to L2C, LLC: ON
DRAM IO FREQUENCY: 6400
ROB SIZE: 352
Off-chip DRAM Size: 4096 MB Channels: 1 Width: 64-bit Data Rate: 6400 MT/s
CPU 0 runs /home/sumon/secure_berti/GhostMinion/../../traces/spec/649.fotonik3d_s-10881B.champsimtrace.xz
.xz
BTB has LRU replacement policy
ITLB has LRU replacement policy
DTLB has LRU replacement policy
STLB has LRU replacement policy
L1I has LRU replacement policy
L0D has LRU replacement policy
History Sets: 8
History Ways: 16
BERTI Size: 16
BERTI Stride Size: 16
L1D has LRU replacement policy
L2C has LRU replacement policy
LLC has LRU replacement policy
Heartbeat CPU 0 instructions: 10000000 cycles: 5561264 heartbeat IPC: 1.79815 cumulative IPC: 1.79815 (Simulation time: 0 hr 1 min 4 sec) 
Heartbeat CPU 0 instructions: 20000000 cycles: 11100198 heartbeat IPC: 1.8054 cumulative IPC: 1.80177 (Simulation time: 0 hr 2 min 8 sec) 
Heartbeat CPU 0 instructions: 30000000 cycles: 16641411 heartbeat IPC: 1.80466 cumulative IPC: 1.80273 (Simulation time: 0 hr 3 min 18 sec) 
Heartbeat CPU 0 instructions: 40000002 cycles: 22182624 heartbeat IPC: 1.80466 cumulative IPC: 1.80321 (Simulation time: 0 hr 4 min 29 sec) 
Heartbeat CPU 0 instructions: 50000002 cycles: 27728231 heartbeat IPC: 1.80323 cumulative IPC: 1.80322 (Simulation time: 0 hr 5 min 41 sec) 

Warmup complete CPU 0 instructions: 50000002 cycles: 27728231 (Simulation time: 0 hr 5 min 41 sec) 

Heartbeat CPU 0 instructions: 60000000 cycles: 45847502 heartbeat IPC: 0.551898 cumulative IPC: 0.551898 (Simulation time: 0 hr 7 min 7 sec) 
Heartbeat CPU 0 instructions: 70000000 cycles: 64215784 heartbeat IPC: 0.544417 cumulative IPC: 0.548132 (Simulation time: 0 hr 8 min 34 sec) 
Heartbeat CPU 0 instructions: 80000003 cycles: 82431124 heartbeat IPC: 0.548988 cumulative IPC: 0.548417 (Simulation time: 0 hr 9 min 59 sec) 
Heartbeat CPU 0 instructions: 90000003 cycles: 100593911 heartbeat IPC: 0.550576 cumulative IPC: 0.548955 (Simulation time: 0 hr 11 min 22 sec) 
Heartbeat CPU 0 instructions: 100000003 cycles: 118857566 heartbeat IPC: 0.547536 cumulative IPC: 0.548671 (Simulation time: 0 hr 12 min 45 sec) 
Heartbeat CPU 0 instructions: 110000000 cycles: 137057502 heartbeat IPC: 0.549452 cumulative IPC: 0.548801 (Simulation time: 0 hr 14 min 9 sec) 
Heartbeat CPU 0 instructions: 120000003 cycles: 155333467 heartbeat IPC: 0.547167 cumulative IPC: 0.548567 (Simulation time: 0 hr 15 min 32 sec) 
Heartbeat CPU 0 instructions: 130000000 cycles: 173564615 heartbeat IPC: 0.548512 cumulative IPC: 0.54856 (Simulation time: 0 hr 16 min 46 sec) 
Heartbeat CPU 0 instructions: 140000002 cycles: 191842283 heartbeat IPC: 0.547116 cumulative IPC: 0.548399 (Simulation time: 0 hr 17 min 58 sec) 
Heartbeat CPU 0 instructions: 150000003 cycles: 210074504 heartbeat IPC: 0.54848 cumulative IPC: 0.548407 (Simulation time: 0 hr 19 min 7 sec) 
Heartbeat CPU 0 instructions: 160000001 cycles: 228342474 heartbeat IPC: 0.547406 cumulative IPC: 0.548316 (Simulation time: 0 hr 20 min 10 sec) 
Heartbeat CPU 0 instructions: 170000003 cycles: 246592901 heartbeat IPC: 0.547933 cumulative IPC: 0.548284 (Simulation time: 0 hr 21 min 11 sec) 
Heartbeat CPU 0 instructions: 180000002 cycles: 264754930 heartbeat IPC: 0.550599 cumulative IPC: 0.548461 (Simulation time: 0 hr 22 min 14 sec) 
Heartbeat CPU 0 instructions: 190000000 cycles: 282990201 heartbeat IPC: 0.548388 cumulative IPC: 0.548456 (Simulation time: 0 hr 23 min 30 sec) 
Heartbeat CPU 0 instructions: 200000002 cycles: 301322278 heartbeat IPC: 0.545492 cumulative IPC: 0.548258 (Simulation time: 0 hr 24 min 51 sec) 
Heartbeat CPU 0 instructions: 210000000 cycles: 319605399 heartbeat IPC: 0.546952 cumulative IPC: 0.548176 (Simulation time: 0 hr 26 min 13 sec) 
Heartbeat CPU 0 instructions: 220000000 cycles: 337869645 heartbeat IPC: 0.547518 cumulative IPC: 0.548137 (Simulation time: 0 hr 27 min 37 sec) 
Heartbeat CPU 0 instructions: 230000001 cycles: 356054608 heartbeat IPC: 0.549905 cumulative IPC: 0.548235 (Simulation time: 0 hr 29 min 2 sec) 
Heartbeat CPU 0 instructions: 240000002 cycles: 374278366 heartbeat IPC: 0.548734 cumulative IPC: 0.548261 (Simulation time: 0 hr 30 min 29 sec) 
Heartbeat CPU 0 instructions: 250000000 cycles: 392505843 heartbeat IPC: 0.548622 cumulative IPC: 0.548279 (Simulation time: 0 hr 31 min 56 sec) 
Finished CPU 0 instructions: 200000002 cycles: 364777613 cumulative IPC: 0.548279 (Simulation time: 0 hr 31 min 56 sec) 
 Instruction ID: 250000353

ChampSim completed all CPUs

Region of Interest Statistics

CPU 0 cumulative IPC: 0.548279 instructions: 200000002 cycles: 364777613
ITLB SPEC fills:          0  NON-SPEC fills:          0
ITLB Test counter :          0
ITLB Leapfrog:          0
ITLB MSHR merge:          0
ITLB TOTAL     ACCESS:   26647436  HIT:   26647436  MISS:          0  HIT %:        100  MISS %:          0   MPKI: 0
ITLB LOAD TRANSLATION NON_SPEC    ACCESS:   26647436  HIT:   26647436  MISS:          0  HIT %:        100  MISS %:          0   MPKI: 0
ITLB PREFETCH  REQUESTED:          0  ISSUED:          0  USEFUL:          0  USELESS:          0
ITLB USEFUL LOAD PREFETCHES:          0 PREFETCH ISSUED TO LOWER LEVEL:          0  ACCURACY: -nan
ITLB TIMELY PREFETCHES:          0 LATE PREFETCHES: 0 DROPPED PREFETCHES: 0
ITLB COMMIT LATE PREFETCHES: 0 MISSED OPPORTUNITY: 0 LATE IN PQ: 0 UNCOVERED: 0
ITLB COMMIT LATE MSHR PREFETCHES: 0
ITLB MPKI TOTAL: 0 MSHR LATE: 0 PQ LATE: 0 COMMIT LATE: 0 MISSED OPPORTUNITY: 0 UNCOVERED: 0
ITLB PREFETCHES SAME FILL-ORIGIN LEVEL: 0 DIFFERENT FILL-ORIGIN LEVEL: 0
ITLB AVERAGE MISS LATENCY: -nan cycles
ITLB AVERAGE MISS LATENCY LOAD: -nan cycles
ITLB AVERAGE MISS LATENCY PREFETCH: -nan cycles
ITLB AVERAGE MSHR OCCUPANCY: 0
ITLB MSHR FULL: 0
ITLB RQ	ACCESS:   28232284	FORWARD:          0	MERGED:    1584848	TO_CACHE:   26647436

DTLB SPEC fills:          0  NON-SPEC fills:          0
DTLB Test counter :          0
DTLB Leapfrog:          0
DTLB MSHR merge:          0
DTLB TOTAL     ACCESS:   93576001  HIT:   92553807  MISS:    1022194  HIT %:    98.9076  MISS %:    1.09237   MPKI: 5.11097
DTLB LOAD TRANSLATION NON_SPEC    ACCESS:   93576001  HIT:   92553807  MISS:    1022194  HIT %:    98.9076  MISS %:    1.09237   MPKI: 5.11097
DTLB PREFETCH  REQUESTED:          0  ISSUED:          0  USEFUL:          0  USELESS:          0
DTLB USEFUL LOAD PREFETCHES:          0 PREFETCH ISSUED TO LOWER LEVEL:          0  ACCURACY: -nan
DTLB TIMELY PREFETCHES:          0 LATE PREFETCHES: 0 DROPPED PREFETCHES: 0
DTLB COMMIT LATE PREFETCHES: 0 MISSED OPPORTUNITY: 0 LATE IN PQ: 0 UNCOVERED: 0
DTLB COMMIT LATE MSHR PREFETCHES: 0
DTLB MPKI TOTAL: 0 MSHR LATE: 0 PQ LATE: 0 COMMIT LATE: 0 MISSED OPPORTUNITY: 0 UNCOVERED: 0
DTLB PREFETCHES SAME FILL-ORIGIN LEVEL: 0 DIFFERENT FILL-ORIGIN LEVEL: 0
DTLB AVERAGE MISS LATENCY: 217.177 cycles
DTLB AVERAGE MISS LATENCY LOAD: -nan cycles
DTLB AVERAGE MISS LATENCY PREFETCH: -nan cycles
DTLB AVERAGE MSHR OCCUPANCY: 0.220038
DTLB MSHR FULL: 0.000212869
DTLB RQ	ACCESS:  109195950	FORWARD:          0	MERGED:   15554801	TO_CACHE:   93641149

STLB SPEC fills:          0  NON-SPEC fills:          0
STLB Test counter :          0
STLB Leapfrog:          0
STLB MSHR merge:          0
STLB TOTAL     ACCESS:    6440196  HIT:    5760991  MISS:     679205  HIT %:    89.4537  MISS %:    10.5463   MPKI: 3.39602
STLB LOAD TRANSLATION NON_SPEC    ACCESS:    1022194  HIT:     477104  MISS:     545090  HIT %:    46.6745  MISS %:    53.3255   MPKI: 2.72545
STLB TRANSLATION FROM L1D PREFETCHER NON_SPEC    ACCESS:    5418002  HIT:    5283887  MISS:     134115  HIT %:    97.5246  MISS %:    2.47536   MPKI: 0.670575
STLB PREFETCH  REQUESTED:          0  ISSUED:          0  USEFUL:     134116  USELESS:          0
STLB USEFUL LOAD PREFETCHES:     134116 PREFETCH ISSUED TO LOWER LEVEL:          0  ACCURACY: inf
STLB TIMELY PREFETCHES:     134116 LATE PREFETCHES: 79894 DROPPED PREFETCHES: 2633736
STLB COMMIT LATE PREFETCHES: 0 MISSED OPPORTUNITY: 0 LATE IN PQ: 0 UNCOVERED: 0
STLB COMMIT LATE MSHR PREFETCHES: 0
STLB MPKI TOTAL: 0 MSHR LATE: 0.39947 PQ LATE: 0 COMMIT LATE: 0 MISSED OPPORTUNITY: 0 UNCOVERED: 0
STLB PREFETCHES SAME FILL-ORIGIN LEVEL: 0 DIFFERENT FILL-ORIGIN LEVEL: 0
STLB AVERAGE MISS LATENCY: 342.794 cycles
STLB AVERAGE MISS LATENCY LOAD: -nan cycles
STLB AVERAGE MISS LATENCY PREFETCH: -nan cycles
STLB AVERAGE MSHR OCCUPANCY: 1.47469
STLB MSHR FULL: 0
STLB RQ	ACCESS:   23715621	FORWARD:          0	MERGED:   14379953	TO_CACHE:    9335668

STLB Hit, L1D data hit: 0
STLB Hit, L2C data hit: 0
STLB Hit, LLC data hit: 0
STLB Hit, LLC data miss: 0
STLB STLB hints to L2: 0
L0D SPEC fills:   52846457  NON-SPEC fills:          0
L0D TimeGuard Request with older TS:    8588024 Restricted eviction:    6174292 read:    2039169
L0D Test counter :          0
L0D Leapfrog:          0
L0D MSHR merge:    4990572
L0D TOTAL     ACCESS:   91382759  HIT:   28337691  MISS:   63045068  HIT %:    31.0099  MISS %:    68.9901   MPKI: 315.225
L0D LOAD      TOTAL       ACCESS:   91382759  HIT:   28337691  MISS:   63045068  HIT %:    31.0099  MISS %:    68.9901   MPKI: 315.225
L0D LOAD      NON_SPEC    ACCESS:    5168766  HIT:    1144270  MISS:    4024496  HIT %:    22.1382  MISS %:    77.8618   MPKI: 20.1225
L0D LOAD      SPEC        ACCESS:   86213993  HIT:   27193421  MISS:   59020572  HIT %:    31.5418  MISS %:    68.4582   MPKI: 295.103
L0D PREFETCH  REQUESTED:          0  ISSUED:          0  USEFUL:          0  USELESS:          0
L0D USEFUL LOAD PREFETCHES:          0 PREFETCH ISSUED TO LOWER LEVEL:          0  ACCURACY: -nan
L0D TIMELY PREFETCHES:          0 LATE PREFETCHES: 0 DROPPED PREFETCHES: 0
L0D COMMIT LATE PREFETCHES: 0 MISSED OPPORTUNITY: 0 LATE IN PQ: 0 UNCOVERED: 0
L0D COMMIT LATE MSHR PREFETCHES: 0
L0D MPKI TOTAL: 340.178 MSHR LATE: 0 PQ LATE: 0 COMMIT LATE: 0 MISSED OPPORTUNITY: 0 UNCOVERED: 0
L0D PREFETCHES SAME FILL-ORIGIN LEVEL: 0 DIFFERENT FILL-ORIGIN LEVEL: 0
L0D AVERAGE MISS LATENCY: 11.0882 cycles
L0D AVERAGE MISS LATENCY LOAD: 11.0882 cycles
L0D AVERAGE MISS LATENCY PREFETCH: -nan cycles
L0D AVERAGE MSHR OCCUPANCY: 2.81033
L0D MSHR FULL: 0.0116443
L0D RQ	ACCESS:  127609802	FORWARD:          0	MERGED:   31236469	TO_CACHE:   96373333
L0D WQ	ACCESS:   12822617	FORWARD:          0	MERGED:          0	TO_CACHE:   12822617

L1D SPEC fills:          0  NON-SPEC fills:      90684
L1D Test counter :    1951336
L1D Leapfrog:          0
L1D MSHR merge:     107694
L1D TOTAL     ACCESS:   86888554  HIT:   80358131  MISS:    6530423  HIT %:    92.4841  MISS %:    7.51586   MPKI: 32.6521
L1D LOAD      TOTAL       ACCESS:   62949546  HIT:   60324056  MISS:    2625490  HIT %:    95.8292  MISS %:    4.17078   MPKI: 13.1274
L1D LOAD      NON_SPEC    ACCESS:    4023330  HIT:    3932646  MISS:      90684  HIT %:     97.746  MISS %:    2.25395   MPKI: 0.45342
L1D LOAD      SPEC        ACCESS:   58926216  HIT:   56391410  MISS:    2534806  HIT %:    95.6983  MISS %:    4.30166   MPKI: 12.674
L1D RFO       NON_SPEC    ACCESS:   12523565  HIT:   12522469  MISS:       1096  HIT %:    99.9912  MISS %:  0.0087515   MPKI: 0.00548
L1D PREFETCH  NON_SPEC    ACCESS:    7802530  HIT:    6348315  MISS:    1454215  HIT %:    81.3623  MISS %:    18.6377   MPKI: 7.27107
L1D COMMIT LOAD NON_SPEC    ACCESS:    1172183  HIT:     957242  MISS:     214941  HIT %:    81.6632  MISS %:    18.3368   MPKI: 1.0747
L1D COMMIT WRITE NON_SPEC    ACCESS:    2440730  HIT:     206049  MISS:    2234681  HIT %:    8.44211  MISS %:    91.5579   MPKI: 11.1734
L1D PREFETCH  REQUESTED:   77499723  ISSUED:   24839947  USEFUL:    1373060  USELESS:      81299
L1D USEFUL LOAD PREFETCHES:    1373060 PREFETCH ISSUED TO LOWER LEVEL:    7934898  ACCURACY: 17.3041
L1D TIMELY PREFETCHES:    1373060 LATE PREFETCHES: 12322 DROPPED PREFETCHES: 8125668
L1D COMMIT LATE PREFETCHES: 0 MISSED OPPORTUNITY: 0 LATE IN PQ: 0 UNCOVERED: 0
L1D COMMIT LATE MSHR PREFETCHES: 0
L1D MPKI TOTAL: 13.6051 MSHR LATE: 0.06161 PQ LATE: 0 COMMIT LATE: 0 MISSED OPPORTUNITY: 0 UNCOVERED: 0
L1D PREFETCHES SAME FILL-ORIGIN LEVEL: 1466537 DIFFERENT FILL-ORIGIN LEVEL: 6468361
L1D AVERAGE MISS LATENCY: 86.7196 cycles
L1D AVERAGE MISS LATENCY LOAD: 132.445 cycles
L1D AVERAGE MISS LATENCY PREFETCH: 139.27 cycles
L1D AVERAGE MSHR OCCUPANCY: 1.30111
L1D MSHR FULL: 5.29198e-07
L1D RQ	ACCESS:   64290893	FORWARD:          0	MERGED:      42695	TO_CACHE:   64248177
L1D WQ	ACCESS:   15263347	FORWARD:         21	MERGED:     191923	TO_CACHE:   15071424
L1D PQ	ACCESS:   24839947	FORWARD:          0	MERGED:    2146520	TO_CACHE:   22693427

L1D UNIQUE REGIONS ACCESSED: 0
L1D REGIONS CONFLICTS: 0
L1D Cross Page Prefetch Requests: 23134618
L1D Same Page Prefetch Requests: 20686777
L1D ROI Sum of L1D PQ occupancy: 2443712743
L1D PREFETCHES PUSHED FROM L2C: 0
L1I SPEC fills:          0  NON-SPEC fills:          0
L1I Test counter :          0
L1I Leapfrog:          0
L1I MSHR merge:          0
L1I TOTAL     ACCESS:   28232282  HIT:   28232282  MISS:          0  HIT %:        100  MISS %:          0   MPKI: 0
L1I LOAD      TOTAL       ACCESS:   28232282  HIT:   28232282  MISS:          0  HIT %:        100  MISS %:          0   MPKI: 0
L1I LOAD      NON_SPEC    ACCESS:   28232282  HIT:   28232282  MISS:          0  HIT %:        100  MISS %:          0   MPKI: 0
L1I PREFETCH  REQUESTED:          0  ISSUED:          0  USEFUL:          0  USELESS:          0
L1I USEFUL LOAD PREFETCHES:          0 PREFETCH ISSUED TO LOWER LEVEL:          0  ACCURACY: -nan
L1I TIMELY PREFETCHES:          0 LATE PREFETCHES: 0 DROPPED PREFETCHES: 0
L1I COMMIT LATE PREFETCHES: 0 MISSED OPPORTUNITY: 0 LATE IN PQ: 0 UNCOVERED: 0
L1I COMMIT LATE MSHR PREFETCHES: 0
L1I MPKI TOTAL: 0 MSHR LATE: 0 PQ LATE: 0 COMMIT LATE: 0 MISSED OPPORTUNITY: 0 UNCOVERED: 0
L1I PREFETCHES SAME FILL-ORIGIN LEVEL: 0 DIFFERENT FILL-ORIGIN LEVEL: 0
L1I AVERAGE MISS LATENCY: -nan cycles
L1I AVERAGE MISS LATENCY LOAD: -nan cycles
L1I AVERAGE MISS LATENCY PREFETCH: -nan cycles
L1I AVERAGE MSHR OCCUPANCY: 0
L1I MSHR FULL: 0
L1I RQ	ACCESS:   63087822	FORWARD:          0	MERGED:   34855538	TO_CACHE:   28232284

BTB SPEC fills:          0  NON-SPEC fills:          0
BTB Test counter :          0
BTB Leapfrog:          0
BTB MSHR merge:          0
BTB TOTAL     ACCESS:    2243766  HIT:    2243761  MISS:          5  HIT %:    99.9998  MISS %: 0.00022284   MPKI: 2.5e-05
BTB BRANCH_DIRECT_JUMP	ACCESS:     160245  HIT:     160244  MISS:          1
BTB BRANCH_INDIRECT	ACCESS:          0  HIT:          0  MISS:          0
BTB BRANCH_CONDITIONAL	ACCESS:    2083521  HIT:    2083517  MISS:          4
BTB BRANCH_DIRECT_CALL	ACCESS:          0  HIT:          0  MISS:          0
BTB BRANCH_INDIRECT_CALL	ACCESS:          0  HIT:          0  MISS:          0
BTB BRANCH_RETURN	ACCESS:          0  HIT:          0  MISS:          0
BTB BRANCH_OTHER ACCESS:          0  HIT:          0  MISS:          0

L2C SPEC fills:          0  NON-SPEC fills:      62792
L2C Test counter :    1946923
L2C Leapfrog:          0
L2C MSHR merge:      58620
L2C TOTAL     ACCESS:   29927751  HIT:   23019821  MISS:    6907930  HIT %:     76.918  MISS %:     23.082   MPKI: 34.5396
L2C LOAD      TOTAL       ACCESS:    2613002  HIT:     749575  MISS:    1863427  HIT %:    28.6864  MISS %:    71.3136   MPKI: 9.31713
L2C LOAD      NON_SPEC    ACCESS:      90636  HIT:      27844  MISS:      62792  HIT %:    30.7207  MISS %:    69.2793   MPKI: 0.31396
L2C LOAD      SPEC        ACCESS:    2522366  HIT:     721731  MISS:    1800635  HIT %:    28.6133  MISS %:    71.3867   MPKI: 9.00317
L2C RFO       NON_SPEC    ACCESS:       1096  HIT:        902  MISS:        194  HIT %:    82.2993  MISS %:    17.7007   MPKI: 0.00097
L2C PREFETCH  NON_SPEC    ACCESS:    7439662  HIT:    4232796  MISS:    3206866  HIT %:     56.895  MISS %:     43.105   MPKI: 16.0343
L2C WRITEBACK NON_SPEC    ACCESS:     754596  HIT:     754588  MISS:          8  HIT %:    99.9989  MISS %: 0.00106017   MPKI: 4e-05
L2C CLEAN_EVICTION NON_SPEC    ACCESS:    1951336  HIT:     283560  MISS:    1667776  HIT %:    14.5316  MISS %:    85.4684   MPKI: 8.33888
L2C COMMIT LOAD NON_SPEC    ACCESS:     214791  HIT:     131497  MISS:      83294  HIT %:    61.2209  MISS %:    38.7791   MPKI: 0.41647
L2C LOAD TRANSLATION NON_SPEC    ACCESS:    2720457  HIT:    2701476  MISS:      18981  HIT %:    99.3023  MISS %:   0.697714   MPKI: 0.094905
L2C TRANSLATION FROM L1D PREFETCHER NON_SPEC    ACCESS:   14232811  HIT:   14165427  MISS:      67384  HIT %:    99.5266  MISS %:   0.473441   MPKI: 0.33692
L2C PREFETCH  REQUESTED:          0  ISSUED:          0  USEFUL:     708245  USELESS:    2568001
L2C USEFUL LOAD PREFETCHES:     708245 PREFETCH ISSUED TO LOWER LEVEL:    3268656  ACCURACY: 21.6678
L2C TIMELY PREFETCHES:     708245 LATE PREFETCHES: 61786 DROPPED PREFETCHES: 0
L2C COMMIT LATE PREFETCHES: 0 MISSED OPPORTUNITY: 0 LATE IN PQ: 0 UNCOVERED: 0
L2C COMMIT LATE MSHR PREFETCHES: 0
L2C MPKI TOTAL: 9.31713 MSHR LATE: 0.30893 PQ LATE: 0 COMMIT LATE: 0 MISSED OPPORTUNITY: 0 UNCOVERED: 0
L2C PREFETCHES SAME FILL-ORIGIN LEVEL: 2373551 DIFFERENT FILL-ORIGIN LEVEL: 0
L2C AVERAGE MISS LATENCY: 143.232 cycles
L2C AVERAGE MISS LATENCY LOAD: 169.37 cycles
L2C AVERAGE MISS LATENCY PREFETCH: 200.396 cycles
L2C AVERAGE MSHR OCCUPANCY: 2.77359
L2C MSHR FULL: 0
L2C RQ	ACCESS:   19782473	FORWARD:          0	MERGED:          0	TO_CACHE:   19782157
L2C WQ	ACCESS:    2705932	FORWARD:        316	MERGED:          0	TO_CACHE:    2705932
L2C PQ	ACCESS:    7934898	FORWARD:          0	MERGED:          8	TO_CACHE:    7934890

L2C Instructions Evicting Data 0
L2C Translations Evicting Data 85135
L2C Data Evicting Data 3297014
L2C Instructions Evicting Instructions 0
L2C Translations Evicting Instructions 0
L2C Data Evicting Instructions 0
L2C Instructions Evicting Translations 0
L2C Translations Evicting Translations 1230
L2C Data Evicting Translations 56132
L2C Dense regions hint from L2: 0
PSCL5 SPEC fills:          0  NON-SPEC fills:          0
PSCL5 Test counter :          0
PSCL5 Leapfrog:          0
PSCL5 MSHR merge:          0
PSCL5 TOTAL     ACCESS:          0  HIT:          0  MISS:          0  HIT %:       -nan  MISS %:       -nan   MPKI: 0
PSCL5 PREFETCH  REQUESTED:          0  ISSUED:          0  USEFUL:          0  USELESS:          0
PSCL5 USEFUL LOAD PREFETCHES:          0 PREFETCH ISSUED TO LOWER LEVEL:          0  ACCURACY: -nan
PSCL5 TIMELY PREFETCHES:          0 LATE PREFETCHES: 0 DROPPED PREFETCHES: 0
PSCL5 COMMIT LATE PREFETCHES: 0 MISSED OPPORTUNITY: 0 LATE IN PQ: 0 UNCOVERED: 0
PSCL5 COMMIT LATE MSHR PREFETCHES: 0
PSCL5 MPKI TOTAL: 0 MSHR LATE: 0 PQ LATE: 0 COMMIT LATE: 0 MISSED OPPORTUNITY: 0 UNCOVERED: 0
PSCL5 PREFETCHES SAME FILL-ORIGIN LEVEL: 0 DIFFERENT FILL-ORIGIN LEVEL: 0

PSCL4 SPEC fills:          0  NON-SPEC fills:          0
PSCL4 Test counter :          0
PSCL4 Leapfrog:          0
PSCL4 MSHR merge:          0
PSCL4 TOTAL     ACCESS:          0  HIT:          0  MISS:          0  HIT %:       -nan  MISS %:       -nan   MPKI: 0
PSCL4 PREFETCH  REQUESTED:          0  ISSUED:          0  USEFUL:          0  USELESS:          0
PSCL4 USEFUL LOAD PREFETCHES:          0 PREFETCH ISSUED TO LOWER LEVEL:          0  ACCURACY: -nan
PSCL4 TIMELY PREFETCHES:          0 LATE PREFETCHES: 0 DROPPED PREFETCHES: 0
PSCL4 COMMIT LATE PREFETCHES: 0 MISSED OPPORTUNITY: 0 LATE IN PQ: 0 UNCOVERED: 0
PSCL4 COMMIT LATE MSHR PREFETCHES: 0
PSCL4 MPKI TOTAL: 0 MSHR LATE: 0 PQ LATE: 0 COMMIT LATE: 0 MISSED OPPORTUNITY: 0 UNCOVERED: 0
PSCL4 PREFETCHES SAME FILL-ORIGIN LEVEL: 0 DIFFERENT FILL-ORIGIN LEVEL: 0

PSCL3 SPEC fills:          0  NON-SPEC fills:          0
PSCL3 Test counter :          0
PSCL3 Leapfrog:          0
PSCL3 MSHR merge:          0
PSCL3 TOTAL     ACCESS:          0  HIT:          0  MISS:          0  HIT %:       -nan  MISS %:       -nan   MPKI: 0
PSCL3 PREFETCH  REQUESTED:          0  ISSUED:          0  USEFUL:          0  USELESS:          0
PSCL3 USEFUL LOAD PREFETCHES:          0 PREFETCH ISSUED TO LOWER LEVEL:          0  ACCURACY: -nan
PSCL3 TIMELY PREFETCHES:          0 LATE PREFETCHES: 0 DROPPED PREFETCHES: 0
PSCL3 COMMIT LATE PREFETCHES: 0 MISSED OPPORTUNITY: 0 LATE IN PQ: 0 UNCOVERED: 0
PSCL3 COMMIT LATE MSHR PREFETCHES: 0
PSCL3 MPKI TOTAL: 0 MSHR LATE: 0 PQ LATE: 0 COMMIT LATE: 0 MISSED OPPORTUNITY: 0 UNCOVERED: 0
PSCL3 PREFETCHES SAME FILL-ORIGIN LEVEL: 0 DIFFERENT FILL-ORIGIN LEVEL: 0

PSCL2 SPEC fills:          0  NON-SPEC fills:          0
PSCL2 Test counter :          0
PSCL2 Leapfrog:          0
PSCL2 MSHR merge:          0
PSCL2 TOTAL     ACCESS:          0  HIT:          0  MISS:          0  HIT %:       -nan  MISS %:       -nan   MPKI: 0
PSCL2 PREFETCH  REQUESTED:          0  ISSUED:          0  USEFUL:          0  USELESS:          0
PSCL2 USEFUL LOAD PREFETCHES:          0 PREFETCH ISSUED TO LOWER LEVEL:          0  ACCURACY: -nan
PSCL2 TIMELY PREFETCHES:          0 LATE PREFETCHES: 0 DROPPED PREFETCHES: 0
PSCL2 COMMIT LATE PREFETCHES: 0 MISSED OPPORTUNITY: 0 LATE IN PQ: 0 UNCOVERED: 0
PSCL2 COMMIT LATE MSHR PREFETCHES: 0
PSCL2 MPKI TOTAL: 0 MSHR LATE: 0 PQ LATE: 0 COMMIT LATE: 0 MISSED OPPORTUNITY: 0 UNCOVERED: 0
PSCL2 PREFETCHES SAME FILL-ORIGIN LEVEL: 0 DIFFERENT FILL-ORIGIN LEVEL: 0

LLC SPEC fills:          0  NON-SPEC fills:      49324
LLC Test counter :    1846743
LLC Leapfrog:          0
LLC MSHR merge:          0
LLC TOTAL     ACCESS:    7941845  HIT:    1924615  MISS:    6017230  HIT %:    24.2339  MISS %:    75.7661   MPKI: 30.0861
LLC LOAD      TOTAL       ACCESS:    1804801  HIT:     216118  MISS:    1588683  HIT %:    11.9746  MISS %:    88.0254   MPKI: 7.94341
LLC LOAD      NON_SPEC    ACCESS:      62000  HIT:      12676  MISS:      49324  HIT %:    20.4452  MISS %:    79.5548   MPKI: 0.24662
LLC LOAD      SPEC        ACCESS:    1742801  HIT:     203442  MISS:    1539359  HIT %:    11.6733  MISS %:    88.3267   MPKI: 7.69679
LLC RFO       NON_SPEC    ACCESS:        193  HIT:         38  MISS:        155  HIT %:    19.6891  MISS %:    80.3109   MPKI: 0.000775
LLC PREFETCH  NON_SPEC    ACCESS:    3268653  HIT:     488439  MISS:    2780214  HIT %:    14.9431  MISS %:    85.0569   MPKI: 13.9011
LLC WRITEBACK NON_SPEC    ACCESS:     754781  HIT:     754773  MISS:          8  HIT %:    99.9989  MISS %: 0.00105991   MPKI: 4e-05
LLC CLEAN_EVICTION NON_SPEC    ACCESS:    1946923  HIT:     430114  MISS:    1516809  HIT %:     22.092  MISS %:     77.908   MPKI: 7.58404
LLC COMMIT LOAD NON_SPEC    ACCESS:      80129  HIT:      21876  MISS:      58253  HIT %:     27.301  MISS %:     72.699   MPKI: 0.291265
LLC LOAD TRANSLATION NON_SPEC    ACCESS:      18981  HIT:       3341  MISS:      15640  HIT %:    17.6018  MISS %:    82.3982   MPKI: 0.0782
LLC TRANSLATION FROM L1D PREFETCHER NON_SPEC    ACCESS:      67384  HIT:       9916  MISS:      57468  HIT %:    14.7157  MISS %:    85.2843   MPKI: 0.28734
LLC PREFETCH  REQUESTED:          0  ISSUED:          0  USEFUL:      63044  USELESS:    2777488
LLC USEFUL LOAD PREFETCHES:      63044 PREFETCH ISSUED TO LOWER LEVEL:    2780217  ACCURACY: 2.26759
LLC TIMELY PREFETCHES:      63044 LATE PREFETCHES: 0 DROPPED PREFETCHES: 0
LLC COMMIT LATE PREFETCHES: 0 MISSED OPPORTUNITY: 0 LATE IN PQ: 0 UNCOVERED: 0
LLC COMMIT LATE MSHR PREFETCHES: 0
LLC MPKI TOTAL: 7.94341 MSHR LATE: 0 PQ LATE: 0 COMMIT LATE: 0 MISSED OPPORTUNITY: 0 UNCOVERED: 0
LLC PREFETCHES SAME FILL-ORIGIN LEVEL: 0 DIFFERENT FILL-ORIGIN LEVEL: 0
LLC AVERAGE MISS LATENCY: 138.01 cycles
LLC AVERAGE MISS LATENCY LOAD: 162.234 cycles
LLC AVERAGE MISS LATENCY PREFETCH: 196.754 cycles
LLC AVERAGE MSHR OCCUPANCY: 1.85775
LLC MSHR FULL: 0
LLC RQ	ACCESS:    1971494	FORWARD:          0	MERGED:          0	TO_CACHE:    1971488
LLC WQ	ACCESS:    2701704	FORWARD:          6	MERGED:          0	TO_CACHE:    2701704
LLC PQ	ACCESS:    3268656	FORWARD:          0	MERGED:          0	TO_CACHE:    3268656

LLC Dense regions hint to LLC: 0

RAW hits: 431708
Loads Generated: 128041518
Loads sent to L1D: 127609802
Stores Generated: 12822620
Stores sent to L1D: 12822617
Major fault: 0 Minor fault: 641201
Allocated PAGES: 641201
Total Load insts: 159473446
Total Non-spec loads: 6780372
Percentage of speculative loads: 95.7483

LeapFrogging counter: 746722
Commit hits: 44947466 miss: 77212604
Commit hit %: 36.7939 miss %: 63.2061
Commits not translated: 0
Loads retired: 2625490
Stores retired: 12822617
Cache fills: 2625490
L1D response latency: 132.445 cycles
Load retirement latency: 370.788 cycles
OOO test counter: 0
Discarded buffer inserts: 44947466 hits: 23976 hit %: 0.0533423
LATENCY_FILL: 10.7076 2444890

DRAM Statistics
 CHANNEL 0
 RQ ROW_BUFFER_HIT:    1189979  ROW_BUFFER_MISS:    3309925
 DBUS_CONGESTED:      46197
 WQ ROW_BUFFER_HIT:     761968  ROW_BUFFER_MISS:    1841487  FULL:        210

 AVG_CONGESTED_CYCLE: 5
 All warmup complete: 2
Channel 0 Bank busy for read cycles: 0
Channel 0 Bank busy for write cycles: 0
Channel 0
Rank 0
0banks busy for read cycles: 2054684
0banks busy for write cycles: 7003
1banks busy for read cycles: 115430141
1banks busy for write cycles: 2367110
2banks busy for read cycles: 65671328
2banks busy for write cycles: 2898567
3banks busy for read cycles: 42368823
3banks busy for write cycles: 3619818
4banks busy for read cycles: 23899311
4banks busy for write cycles: 4638746
5banks busy for read cycles: 10405513
5banks busy for write cycles: 6335076
6banks busy for read cycles: 4057908
6banks busy for write cycles: 10002756
7banks busy for read cycles: 1614040
7banks busy for write cycles: 21076402
8banks busy for read cycles: 494249
8banks busy for write cycles: 47836139

CPU 0 Branch Prediction Accuracy: 99.9931% MPKI: 0.00083 Average ROB Occupancy at Mispredict: 338.464
Branch types
NOT_BRANCH: 197595958 98.798%
BRANCH_DIRECT_JUMP: 160245 0.0801225%
BRANCH_INDIRECT: 0 0%
BRANCH_CONDITIONAL: 2243766 1.12188%
BRANCH_DIRECT_CALL: 0 0%
BRANCH_INDIRECT_CALL: 0 0%
BRANCH_RETURN: 0 0%
BRANCH_OTHER: 0 0%

DRAM PAGES: 1048576
Allocated PAGES: 641201
