
*** ChampSim Multicore Out-of-Order Simulator ***

Warmup Instructions: 50000000
Simulation Instructions: 200000000
Number of CPUs: 1
LLC sets: 2048
LLC ways: 16
L0D sets: 16
L0D ways: 2
ROB size: 352
LQ size: 128
SQ size: 72
Secure Berti: OFF
Berti: OFF
Berti Fill: OFF
On commit prefetching: ON
Hit-based filter: ON
Time-guarding: ON
Free-slotting: ON
Leap-frogging: ON
Train prefetcher on L0D bypass: OFF
No translation penalty for prefetchers: OFF
Prefetch to L0D only: OFF
Prefetch to L1D only: OFF
Clean evictions: ON
Commit loads: ON
Commit write: ON
Fill commit loads to L2C, LLC: ON
DRAM IO FREQUENCY: 6400
ROB SIZE: 352
Off-chip DRAM Size: 4096 MB Channels: 1 Width: 64-bit Data Rate: 6400 MT/s
CPU 0 runs /home/sumon/secure_berti/GhostMinion/../../traces/spec/654.roms_s-1613B.champsimtrace.xz
.xz
BTB has LRU replacement policy
ITLB has LRU replacement policy
DTLB has LRU replacement policy
STLB has LRU replacement policy
L1I has LRU replacement policy
L0D has LRU replacement policy
History Sets: 8
History Ways: 16
BERTI Size: 16
BERTI Stride Size: 16
L1D has LRU replacement policy
L2C has LRU replacement policy
LLC has LRU replacement policy
Heartbeat CPU 0 instructions: 10000001 cycles: 4746955 heartbeat IPC: 2.10661 cumulative IPC: 2.10661 (Simulation time: 0 hr 0 min 35 sec) 
Heartbeat CPU 0 instructions: 20000003 cycles: 9493763 heartbeat IPC: 2.10668 cumulative IPC: 2.10665 (Simulation time: 0 hr 1 min 10 sec) 
Heartbeat CPU 0 instructions: 30000000 cycles: 14240587 heartbeat IPC: 2.10667 cumulative IPC: 2.10665 (Simulation time: 0 hr 1 min 44 sec) 
Heartbeat CPU 0 instructions: 40000002 cycles: 18986284 heartbeat IPC: 2.10717 cumulative IPC: 2.10678 (Simulation time: 0 hr 2 min 20 sec) 
Heartbeat CPU 0 instructions: 50000003 cycles: 25136338 heartbeat IPC: 1.626 cumulative IPC: 1.98915 (Simulation time: 0 hr 3 min 4 sec) 

Warmup complete CPU 0 instructions: 50000003 cycles: 25136338 (Simulation time: 0 hr 3 min 4 sec) 

Heartbeat CPU 0 instructions: 60000001 cycles: 40753130 heartbeat IPC: 0.640336 cumulative IPC: 0.640336 (Simulation time: 0 hr 3 min 42 sec) 
Heartbeat CPU 0 instructions: 70000003 cycles: 56366115 heartbeat IPC: 0.640493 cumulative IPC: 0.640414 (Simulation time: 0 hr 4 min 20 sec) 
Heartbeat CPU 0 instructions: 80000000 cycles: 71969432 heartbeat IPC: 0.640889 cumulative IPC: 0.640573 (Simulation time: 0 hr 4 min 58 sec) 
Heartbeat CPU 0 instructions: 90000001 cycles: 87567513 heartbeat IPC: 0.641105 cumulative IPC: 0.640706 (Simulation time: 0 hr 5 min 37 sec) 
Heartbeat CPU 0 instructions: 100000000 cycles: 103167868 heartbeat IPC: 0.641011 cumulative IPC: 0.640767 (Simulation time: 0 hr 6 min 15 sec) 
Heartbeat CPU 0 instructions: 110000000 cycles: 118768243 heartbeat IPC: 0.64101 cumulative IPC: 0.640807 (Simulation time: 0 hr 6 min 55 sec) 
Heartbeat CPU 0 instructions: 120000001 cycles: 139365401 heartbeat IPC: 0.485504 cumulative IPC: 0.612804 (Simulation time: 0 hr 7 min 48 sec) 
Heartbeat CPU 0 instructions: 130000000 cycles: 154957378 heartbeat IPC: 0.641355 cumulative IPC: 0.616233 (Simulation time: 0 hr 8 min 28 sec) 
Heartbeat CPU 0 instructions: 140000003 cycles: 170557451 heartbeat IPC: 0.641023 cumulative IPC: 0.618892 (Simulation time: 0 hr 9 min 6 sec) 
Heartbeat CPU 0 instructions: 150000001 cycles: 186157053 heartbeat IPC: 0.641042 cumulative IPC: 0.621038 (Simulation time: 0 hr 9 min 45 sec) 
Heartbeat CPU 0 instructions: 160000001 cycles: 201754829 heartbeat IPC: 0.641117 cumulative IPC: 0.622811 (Simulation time: 0 hr 10 min 22 sec) 
Heartbeat CPU 0 instructions: 170000002 cycles: 217353687 heartbeat IPC: 0.641073 cumulative IPC: 0.624293 (Simulation time: 0 hr 11 min 0 sec) 
Heartbeat CPU 0 instructions: 180000000 cycles: 232953152 heartbeat IPC: 0.641047 cumulative IPC: 0.625551 (Simulation time: 0 hr 11 min 39 sec) 
Heartbeat CPU 0 instructions: 190000000 cycles: 248552433 heartbeat IPC: 0.641055 cumulative IPC: 0.626633 (Simulation time: 0 hr 12 min 16 sec) 
Heartbeat CPU 0 instructions: 200000003 cycles: 269217812 heartbeat IPC: 0.483901 cumulative IPC: 0.614549 (Simulation time: 0 hr 13 min 8 sec) 
Heartbeat CPU 0 instructions: 210000001 cycles: 284819012 heartbeat IPC: 0.640976 cumulative IPC: 0.616137 (Simulation time: 0 hr 13 min 46 sec) 
Heartbeat CPU 0 instructions: 220000000 cycles: 300419051 heartbeat IPC: 0.641024 cumulative IPC: 0.617547 (Simulation time: 0 hr 14 min 24 sec) 
Heartbeat CPU 0 instructions: 230000003 cycles: 316018572 heartbeat IPC: 0.641046 cumulative IPC: 0.618807 (Simulation time: 0 hr 15 min 2 sec) 
Heartbeat CPU 0 instructions: 240000003 cycles: 331615716 heartbeat IPC: 0.641143 cumulative IPC: 0.619944 (Simulation time: 0 hr 15 min 39 sec) 
Heartbeat CPU 0 instructions: 250000000 cycles: 347215156 heartbeat IPC: 0.641048 cumulative IPC: 0.620966 (Simulation time: 0 hr 16 min 15 sec) 
Finished CPU 0 instructions: 200000000 cycles: 322078848 cumulative IPC: 0.620966 (Simulation time: 0 hr 16 min 15 sec) 
 Instruction ID: 250000065

ChampSim completed all CPUs

Region of Interest Statistics

CPU 0 cumulative IPC: 0.620966 instructions: 200000000 cycles: 322078848
ITLB SPEC fills:          0  NON-SPEC fills:          0
ITLB Test counter :          0
ITLB Leapfrog:          0
ITLB MSHR merge:          0
ITLB TOTAL     ACCESS:   30460016  HIT:   30460008  MISS:          8  HIT %:        100  MISS %: 2.62639e-05   MPKI: 4e-05
ITLB LOAD TRANSLATION NON_SPEC    ACCESS:   30460016  HIT:   30460008  MISS:          8  HIT %:        100  MISS %: 2.62639e-05   MPKI: 4e-05
ITLB PREFETCH  REQUESTED:          0  ISSUED:          0  USEFUL:          0  USELESS:          0
ITLB USEFUL LOAD PREFETCHES:          0 PREFETCH ISSUED TO LOWER LEVEL:          0  ACCURACY: -nan
ITLB TIMELY PREFETCHES:          0 LATE PREFETCHES: 0 DROPPED PREFETCHES: 0
ITLB COMMIT LATE PREFETCHES: 0 MISSED OPPORTUNITY: 0 LATE IN PQ: 0 UNCOVERED: 0
ITLB COMMIT LATE MSHR PREFETCHES: 0
ITLB MPKI TOTAL: 0 MSHR LATE: 0 PQ LATE: 0 COMMIT LATE: 0 MISSED OPPORTUNITY: 0 UNCOVERED: 0
ITLB PREFETCHES SAME FILL-ORIGIN LEVEL: 0 DIFFERENT FILL-ORIGIN LEVEL: 0
ITLB AVERAGE MISS LATENCY: 315.625 cycles
ITLB AVERAGE MISS LATENCY LOAD: -nan cycles
ITLB AVERAGE MISS LATENCY PREFETCH: -nan cycles
ITLB AVERAGE MSHR OCCUPANCY: 0
ITLB MSHR FULL: 0
ITLB RQ	ACCESS:   39720744	FORWARD:          0	MERGED:    9260728	TO_CACHE:   30460016

DTLB SPEC fills:          0  NON-SPEC fills:          0
DTLB Test counter :          0
DTLB Leapfrog:          0
DTLB MSHR merge:          0
DTLB TOTAL     ACCESS:   44437528  HIT:   44425331  MISS:      12197  HIT %:    99.9726  MISS %:  0.0274475   MPKI: 0.060985
DTLB LOAD TRANSLATION NON_SPEC    ACCESS:   44437528  HIT:   44425331  MISS:      12197  HIT %:    99.9726  MISS %:  0.0274475   MPKI: 0.060985
DTLB PREFETCH  REQUESTED:          0  ISSUED:          0  USEFUL:          0  USELESS:          0
DTLB USEFUL LOAD PREFETCHES:          0 PREFETCH ISSUED TO LOWER LEVEL:          0  ACCURACY: -nan
DTLB TIMELY PREFETCHES:          0 LATE PREFETCHES: 0 DROPPED PREFETCHES: 0
DTLB COMMIT LATE PREFETCHES: 0 MISSED OPPORTUNITY: 0 LATE IN PQ: 0 UNCOVERED: 0
DTLB COMMIT LATE MSHR PREFETCHES: 0
DTLB MPKI TOTAL: 0 MSHR LATE: 0 PQ LATE: 0 COMMIT LATE: 0 MISSED OPPORTUNITY: 0 UNCOVERED: 0
DTLB PREFETCHES SAME FILL-ORIGIN LEVEL: 0 DIFFERENT FILL-ORIGIN LEVEL: 0
DTLB AVERAGE MISS LATENCY: 76.8351 cycles
DTLB AVERAGE MISS LATENCY LOAD: -nan cycles
DTLB AVERAGE MISS LATENCY PREFETCH: -nan cycles
DTLB AVERAGE MSHR OCCUPANCY: 0.000829064
DTLB MSHR FULL: 0
DTLB RQ	ACCESS:   53699354	FORWARD:          0	MERGED:    9251642	TO_CACHE:   44447712

STLB SPEC fills:          0  NON-SPEC fills:          0
STLB Test counter :          0
STLB Leapfrog:          0
STLB MSHR merge:          0
STLB TOTAL     ACCESS:    4778200  HIT:    4766842  MISS:      11358  HIT %:    99.7623  MISS %:   0.237705   MPKI: 0.05679
STLB LOAD TRANSLATION NON_SPEC    ACCESS:      12205  HIT:       7924  MISS:       4281  HIT %:    64.9242  MISS %:    35.0758   MPKI: 0.021405
STLB TRANSLATION FROM L1D PREFETCHER NON_SPEC    ACCESS:    4765995  HIT:    4758918  MISS:       7077  HIT %:    99.8515  MISS %:   0.148489   MPKI: 0.035385
STLB PREFETCH  REQUESTED:          0  ISSUED:          0  USEFUL:       7076  USELESS:          1
STLB USEFUL LOAD PREFETCHES:       7076 PREFETCH ISSUED TO LOWER LEVEL:          0  ACCURACY: inf
STLB TIMELY PREFETCHES:       7076 LATE PREFETCHES: 1433 DROPPED PREFETCHES: 36230
STLB COMMIT LATE PREFETCHES: 0 MISSED OPPORTUNITY: 0 LATE IN PQ: 0 UNCOVERED: 0
STLB COMMIT LATE MSHR PREFETCHES: 0
STLB MPKI TOTAL: 0 MSHR LATE: 0.007165 PQ LATE: 0 COMMIT LATE: 0 MISSED OPPORTUNITY: 0 UNCOVERED: 0
STLB PREFETCHES SAME FILL-ORIGIN LEVEL: 0 DIFFERENT FILL-ORIGIN LEVEL: 0
STLB AVERAGE MISS LATENCY: 141.465 cycles
STLB AVERAGE MISS LATENCY LOAD: -nan cycles
STLB AVERAGE MISS LATENCY PREFETCH: -nan cycles
STLB AVERAGE MSHR OCCUPANCY: 0.0329384
STLB MSHR FULL: 0
STLB RQ	ACCESS:   21636919	FORWARD:          0	MERGED:   16809574	TO_CACHE:    4827345

STLB Hit, L1D data hit: 0
STLB Hit, L2C data hit: 0
STLB Hit, LLC data hit: 0
STLB Hit, LLC data miss: 0
STLB STLB hints to L2: 0
L0D SPEC fills:   16345834  NON-SPEC fills:          0
L0D TimeGuard Request with older TS:       7796 Restricted eviction:         50 read:     866645
L0D Test counter :          0
L0D Leapfrog:          0
L0D MSHR merge:     278169
L0D TOTAL     ACCESS:   31708817  HIT:    1949184  MISS:   29759633  HIT %:    6.14714  MISS %:    93.8529   MPKI: 148.798
L0D LOAD      TOTAL       ACCESS:   31708817  HIT:    1949184  MISS:   29759633  HIT %:    6.14714  MISS %:    93.8529   MPKI: 148.798
L0D LOAD      NON_SPEC    ACCESS:   13419623  HIT:       5874  MISS:   13413749  HIT %:  0.0437717  MISS %:    99.9562   MPKI: 67.0687
L0D LOAD      SPEC        ACCESS:   18289194  HIT:    1943310  MISS:   16345884  HIT %:    10.6255  MISS %:    89.3745   MPKI: 81.7294
L0D PREFETCH  REQUESTED:          0  ISSUED:          0  USEFUL:          0  USELESS:          0
L0D USEFUL LOAD PREFETCHES:          0 PREFETCH ISSUED TO LOWER LEVEL:          0  ACCURACY: -nan
L0D TIMELY PREFETCHES:          0 LATE PREFETCHES: 0 DROPPED PREFETCHES: 0
L0D COMMIT LATE PREFETCHES: 0 MISSED OPPORTUNITY: 0 LATE IN PQ: 0 UNCOVERED: 0
L0D COMMIT LATE MSHR PREFETCHES: 0
L0D MPKI TOTAL: 150.189 MSHR LATE: 0 PQ LATE: 0 COMMIT LATE: 0 MISSED OPPORTUNITY: 0 UNCOVERED: 0
L0D PREFETCHES SAME FILL-ORIGIN LEVEL: 0 DIFFERENT FILL-ORIGIN LEVEL: 0
L0D AVERAGE MISS LATENCY: 5.60849 cycles
L0D AVERAGE MISS LATENCY LOAD: 5.60849 cycles
L0D AVERAGE MISS LATENCY PREFETCH: -nan cycles
L0D AVERAGE MSHR OCCUPANCY: 0.550632
L0D MSHR FULL: 0
L0D RQ	ACCESS:   40096878	FORWARD:          0	MERGED:    8109897	TO_CACHE:   31986981
L0D WQ	ACCESS:   21712373	FORWARD:          0	MERGED:          0	TO_CACHE:   21712373

L1D SPEC fills:          0  NON-SPEC fills:      11832
L1D Test counter :      49098
L1D Leapfrog:          0
L1D MSHR merge:      16339
L1D TOTAL     ACCESS:   67680628  HIT:   67009846  MISS:     670782  HIT %:    99.0089  MISS %:   0.991099   MPKI: 3.35391
L1D LOAD      TOTAL       ACCESS:   29759611  HIT:   29673614  MISS:      85997  HIT %:     99.711  MISS %:   0.288972   MPKI: 0.429985
L1D LOAD      NON_SPEC    ACCESS:   13413744  HIT:   13401912  MISS:      11832  HIT %:    99.9118  MISS %:   0.088208   MPKI: 0.05916
L1D LOAD      SPEC        ACCESS:   16345867  HIT:   16271702  MISS:      74165  HIT %:    99.5463  MISS %:   0.453723   MPKI: 0.370825
L1D RFO       NON_SPEC    ACCESS:   20251814  HIT:   20239751  MISS:      12063  HIT %:    99.9404  MISS %:   0.059565   MPKI: 0.060315
L1D PREFETCH  NON_SPEC    ACCESS:   17429314  HIT:   16921673  MISS:     507641  HIT %:    97.0874  MISS %:    2.91257   MPKI: 2.53821
L1D COMMIT LOAD NON_SPEC    ACCESS:     163080  HIT:     162932  MISS:        148  HIT %:    99.9092  MISS %:   0.090753   MPKI: 0.00074
L1D COMMIT WRITE NON_SPEC    ACCESS:      76809  HIT:      11876  MISS:      64933  HIT %:    15.4617  MISS %:    84.5383   MPKI: 0.324665
L1D PREFETCH  REQUESTED:   33216405  ISSUED:   26257688  USEFUL:     262625  USELESS:     244998
L1D USEFUL LOAD PREFETCHES:     262625 PREFETCH ISSUED TO LOWER LEVEL:    3770338  ACCURACY: 6.96556
L1D TIMELY PREFETCHES:     262625 LATE PREFETCHES: 16324 DROPPED PREFETCHES: 72957
L1D COMMIT LATE PREFETCHES: 0 MISSED OPPORTUNITY: 0 LATE IN PQ: 0 UNCOVERED: 0
L1D COMMIT LATE MSHR PREFETCHES: 0
L1D MPKI TOTAL: 0.43009 MSHR LATE: 0.08162 PQ LATE: 0 COMMIT LATE: 0 MISSED OPPORTUNITY: 0 UNCOVERED: 0
L1D PREFETCHES SAME FILL-ORIGIN LEVEL: 530391 DIFFERENT FILL-ORIGIN LEVEL: 3239947
L1D AVERAGE MISS LATENCY: 124.835 cycles
L1D AVERAGE MISS LATENCY LOAD: 160.799 cycles
L1D AVERAGE MISS LATENCY PREFETCH: 136.757 cycles
L1D AVERAGE MSHR OCCUPANCY: 0.170731
L1D MSHR FULL: 0.000293276
L1D RQ	ACCESS:   30134379	FORWARD:          0	MERGED:     211510	TO_CACHE:   29922852
L1D WQ	ACCESS:   21789183	FORWARD:         17	MERGED:    1412287	TO_CACHE:   20376896
L1D PQ	ACCESS:   26257688	FORWARD:          0	MERGED:    4632974	TO_CACHE:   21624714

L1D UNIQUE REGIONS ACCESSED: 0
L1D REGIONS CONFLICTS: 0
L1D Cross Page Prefetch Requests: 2770994
L1D Same Page Prefetch Requests: 31384628
L1D ROI Sum of L1D PQ occupancy: 383308602
L1D PREFETCHES PUSHED FROM L2C: 0
L1I SPEC fills:          0  NON-SPEC fills:          0
L1I Test counter :          0
L1I Leapfrog:          0
L1I MSHR merge:         15
L1I TOTAL     ACCESS:   39720727  HIT:   39720621  MISS:        106  HIT %:    99.9997  MISS %: 0.000266863   MPKI: 0.00053
L1I LOAD      TOTAL       ACCESS:   39720727  HIT:   39720621  MISS:        106  HIT %:    99.9997  MISS %: 0.000266863   MPKI: 0.00053
L1I LOAD      NON_SPEC    ACCESS:   39720727  HIT:   39720621  MISS:        106  HIT %:    99.9997  MISS %: 0.000266863   MPKI: 0.00053
L1I PREFETCH  REQUESTED:          0  ISSUED:          0  USEFUL:          0  USELESS:          0
L1I USEFUL LOAD PREFETCHES:          0 PREFETCH ISSUED TO LOWER LEVEL:          0  ACCURACY: -nan
L1I TIMELY PREFETCHES:          0 LATE PREFETCHES: 0 DROPPED PREFETCHES: 0
L1I COMMIT LATE PREFETCHES: 0 MISSED OPPORTUNITY: 0 LATE IN PQ: 0 UNCOVERED: 0
L1I COMMIT LATE MSHR PREFETCHES: 0
L1I MPKI TOTAL: 0.000605 MSHR LATE: 0 PQ LATE: 0 COMMIT LATE: 0 MISSED OPPORTUNITY: 0 UNCOVERED: 0
L1I PREFETCHES SAME FILL-ORIGIN LEVEL: 0 DIFFERENT FILL-ORIGIN LEVEL: 0
L1I AVERAGE MISS LATENCY: 168.292 cycles
L1I AVERAGE MISS LATENCY LOAD: 168.292 cycles
L1I AVERAGE MISS LATENCY PREFETCH: -nan cycles
L1I AVERAGE MSHR OCCUPANCY: 1.51055e-06
L1I MSHR FULL: 0
L1I RQ	ACCESS:   57879722	FORWARD:          0	MERGED:   18158978	TO_CACHE:   39720744

BTB SPEC fills:          0  NON-SPEC fills:          0
BTB Test counter :          0
BTB Leapfrog:          0
BTB MSHR merge:          0
BTB TOTAL     ACCESS:   13350901  HIT:   11926181  MISS:    1424720  HIT %:    89.3287  MISS %:    10.6713   MPKI: 7.1236
BTB BRANCH_DIRECT_JUMP	ACCESS:    1424895  HIT:    1424857  MISS:         38
BTB BRANCH_INDIRECT	ACCESS:         16  HIT:         15  MISS:          1
BTB BRANCH_CONDITIONAL	ACCESS:    6226070  HIT:    6225943  MISS:        127
BTB BRANCH_DIRECT_CALL	ACCESS:    2849960  HIT:    2849915  MISS:         45
BTB BRANCH_INDIRECT_CALL	ACCESS:          0  HIT:          0  MISS:          0
BTB BRANCH_RETURN	ACCESS:    2849960  HIT:    1425451  MISS:    1424509
BTB BRANCH_OTHER ACCESS:          0  HIT:          0  MISS:          0

L2C SPEC fills:          0  NON-SPEC fills:       3993
L2C Test counter :      50377
L2C Leapfrog:          0
L2C MSHR merge:      18500
L2C TOTAL     ACCESS:    3886312  HIT:    3241978  MISS:     644334  HIT %:    83.4204  MISS %:    16.5796   MPKI: 3.22167
L2C LOAD      TOTAL       ACCESS:      69782  HIT:      30859  MISS:      38923  HIT %:     44.222  MISS %:     55.778   MPKI: 0.194615
L2C LOAD      NON_SPEC    ACCESS:       9711  HIT:       5612  MISS:       4099  HIT %:    57.7901  MISS %:    42.2099   MPKI: 0.020495
L2C LOAD      SPEC        ACCESS:      60071  HIT:      25247  MISS:      34824  HIT %:    42.0286  MISS %:    57.9714   MPKI: 0.17412
L2C RFO       NON_SPEC    ACCESS:       5637  HIT:       3976  MISS:       1661  HIT %:     70.534  MISS %:     29.466   MPKI: 0.008305
L2C PREFETCH  NON_SPEC    ACCESS:    3293621  HIT:    2717605  MISS:     576016  HIT %:    82.5112  MISS %:    17.4888   MPKI: 2.88008
L2C WRITEBACK NON_SPEC    ACCESS:     223145  HIT:     222747  MISS:        398  HIT %:    99.8216  MISS %:   0.178359   MPKI: 0.00199
L2C CLEAN_EVICTION NON_SPEC    ACCESS:      49098  HIT:      23923  MISS:      25175  HIT %:     48.725  MISS %:     51.275   MPKI: 0.125875
L2C COMMIT LOAD NON_SPEC    ACCESS:        142  HIT:        118  MISS:         24  HIT %:    83.0986  MISS %:    16.9014   MPKI: 0.00012
L2C LOAD TRANSLATION NON_SPEC    ACCESS:      21219  HIT:      20626  MISS:        593  HIT %:    97.2053  MISS %:    2.79467   MPKI: 0.002965
L2C TRANSLATION FROM L1D PREFETCHER NON_SPEC    ACCESS:     223668  HIT:     222124  MISS:       1544  HIT %:    99.3097  MISS %:   0.690309   MPKI: 0.00772
L2C PREFETCH  REQUESTED:          0  ISSUED:          0  USEFUL:      32561  USELESS:     543545
L2C USEFUL LOAD PREFETCHES:      32561 PREFETCH ISSUED TO LOWER LEVEL:     594993  ACCURACY: 5.4725
L2C TIMELY PREFETCHES:      32561 LATE PREFETCHES: 18977 DROPPED PREFETCHES: 0
L2C COMMIT LATE PREFETCHES: 0 MISSED OPPORTUNITY: 0 LATE IN PQ: 0 UNCOVERED: 0
L2C COMMIT LATE MSHR PREFETCHES: 0
L2C MPKI TOTAL: 0.194615 MSHR LATE: 0.094885 PQ LATE: 0 COMMIT LATE: 0 MISSED OPPORTUNITY: 0 UNCOVERED: 0
L2C PREFETCHES SAME FILL-ORIGIN LEVEL: 355657 DIFFERENT FILL-ORIGIN LEVEL: 0
L2C AVERAGE MISS LATENCY: 234.507 cycles
L2C AVERAGE MISS LATENCY LOAD: 264.233 cycles
L2C AVERAGE MISS LATENCY PREFETCH: 242.628 cycles
L2C AVERAGE MSHR OCCUPANCY: 3.48014
L2C MSHR FULL: 4.05682e-05
L2C RQ	ACCESS:     320451	FORWARD:          0	MERGED:          0	TO_CACHE:     320448
L2C WQ	ACCESS:     272243	FORWARD:          3	MERGED:          0	TO_CACHE:     272243
L2C PQ	ACCESS:    3769837	FORWARD:          0	MERGED:         91	TO_CACHE:    3769746

L2C Instructions Evicting Data 106
L2C Translations Evicting Data 2130
L2C Data Evicting Data 579530
L2C Instructions Evicting Instructions 0
L2C Translations Evicting Instructions 0
L2C Data Evicting Instructions 144
L2C Instructions Evicting Translations 0
L2C Translations Evicting Translations 7
L2C Data Evicting Translations 2020
L2C Dense regions hint from L2: 0
PSCL5 SPEC fills:          0  NON-SPEC fills:          0
PSCL5 Test counter :          0
PSCL5 Leapfrog:          0
PSCL5 MSHR merge:          0
PSCL5 TOTAL     ACCESS:          0  HIT:          0  MISS:          0  HIT %:       -nan  MISS %:       -nan   MPKI: 0
PSCL5 PREFETCH  REQUESTED:          0  ISSUED:          0  USEFUL:          0  USELESS:          0
PSCL5 USEFUL LOAD PREFETCHES:          0 PREFETCH ISSUED TO LOWER LEVEL:          0  ACCURACY: -nan
PSCL5 TIMELY PREFETCHES:          0 LATE PREFETCHES: 0 DROPPED PREFETCHES: 0
PSCL5 COMMIT LATE PREFETCHES: 0 MISSED OPPORTUNITY: 0 LATE IN PQ: 0 UNCOVERED: 0
PSCL5 COMMIT LATE MSHR PREFETCHES: 0
PSCL5 MPKI TOTAL: 0 MSHR LATE: 0 PQ LATE: 0 COMMIT LATE: 0 MISSED OPPORTUNITY: 0 UNCOVERED: 0
PSCL5 PREFETCHES SAME FILL-ORIGIN LEVEL: 0 DIFFERENT FILL-ORIGIN LEVEL: 0

PSCL4 SPEC fills:          0  NON-SPEC fills:          0
PSCL4 Test counter :          0
PSCL4 Leapfrog:          0
PSCL4 MSHR merge:          0
PSCL4 TOTAL     ACCESS:          0  HIT:          0  MISS:          0  HIT %:       -nan  MISS %:       -nan   MPKI: 0
PSCL4 PREFETCH  REQUESTED:          0  ISSUED:          0  USEFUL:          0  USELESS:          0
PSCL4 USEFUL LOAD PREFETCHES:          0 PREFETCH ISSUED TO LOWER LEVEL:          0  ACCURACY: -nan
PSCL4 TIMELY PREFETCHES:          0 LATE PREFETCHES: 0 DROPPED PREFETCHES: 0
PSCL4 COMMIT LATE PREFETCHES: 0 MISSED OPPORTUNITY: 0 LATE IN PQ: 0 UNCOVERED: 0
PSCL4 COMMIT LATE MSHR PREFETCHES: 0
PSCL4 MPKI TOTAL: 0 MSHR LATE: 0 PQ LATE: 0 COMMIT LATE: 0 MISSED OPPORTUNITY: 0 UNCOVERED: 0
PSCL4 PREFETCHES SAME FILL-ORIGIN LEVEL: 0 DIFFERENT FILL-ORIGIN LEVEL: 0

PSCL3 SPEC fills:          0  NON-SPEC fills:          0
PSCL3 Test counter :          0
PSCL3 Leapfrog:          0
PSCL3 MSHR merge:          0
PSCL3 TOTAL     ACCESS:          0  HIT:          0  MISS:          0  HIT %:       -nan  MISS %:       -nan   MPKI: 0
PSCL3 PREFETCH  REQUESTED:          0  ISSUED:          0  USEFUL:          0  USELESS:          0
PSCL3 USEFUL LOAD PREFETCHES:          0 PREFETCH ISSUED TO LOWER LEVEL:          0  ACCURACY: -nan
PSCL3 TIMELY PREFETCHES:          0 LATE PREFETCHES: 0 DROPPED PREFETCHES: 0
PSCL3 COMMIT LATE PREFETCHES: 0 MISSED OPPORTUNITY: 0 LATE IN PQ: 0 UNCOVERED: 0
PSCL3 COMMIT LATE MSHR PREFETCHES: 0
PSCL3 MPKI TOTAL: 0 MSHR LATE: 0 PQ LATE: 0 COMMIT LATE: 0 MISSED OPPORTUNITY: 0 UNCOVERED: 0
PSCL3 PREFETCHES SAME FILL-ORIGIN LEVEL: 0 DIFFERENT FILL-ORIGIN LEVEL: 0

PSCL2 SPEC fills:          0  NON-SPEC fills:          0
PSCL2 Test counter :          0
PSCL2 Leapfrog:          0
PSCL2 MSHR merge:          0
PSCL2 TOTAL     ACCESS:          0  HIT:          0  MISS:          0  HIT %:       -nan  MISS %:       -nan   MPKI: 0
PSCL2 PREFETCH  REQUESTED:          0  ISSUED:          0  USEFUL:          0  USELESS:          0
PSCL2 USEFUL LOAD PREFETCHES:          0 PREFETCH ISSUED TO LOWER LEVEL:          0  ACCURACY: -nan
PSCL2 TIMELY PREFETCHES:          0 LATE PREFETCHES: 0 DROPPED PREFETCHES: 0
PSCL2 COMMIT LATE PREFETCHES: 0 MISSED OPPORTUNITY: 0 LATE IN PQ: 0 UNCOVERED: 0
PSCL2 COMMIT LATE MSHR PREFETCHES: 0
PSCL2 MPKI TOTAL: 0 MSHR LATE: 0 PQ LATE: 0 COMMIT LATE: 0 MISSED OPPORTUNITY: 0 UNCOVERED: 0
PSCL2 PREFETCHES SAME FILL-ORIGIN LEVEL: 0 DIFFERENT FILL-ORIGIN LEVEL: 0

LLC SPEC fills:          0  NON-SPEC fills:       2661
LLC Test counter :      50995
LLC Leapfrog:          0
LLC MSHR merge:          0
LLC TOTAL     ACCESS:     892452  HIT:     264944  MISS:     627508  HIT %:    29.6872  MISS %:    70.3128   MPKI: 3.13754
LLC LOAD      TOTAL       ACCESS:      20423  HIT:        803  MISS:      19620  HIT %:    3.93184  MISS %:    96.0682   MPKI: 0.0981
LLC LOAD      NON_SPEC    ACCESS:       2773  HIT:          6  MISS:       2767  HIT %:   0.216372  MISS %:    99.7836   MPKI: 0.013835
LLC LOAD      SPEC        ACCESS:      17650  HIT:        797  MISS:      16853  HIT %:    4.51558  MISS %:    95.4844   MPKI: 0.084265
LLC RFO       NON_SPEC    ACCESS:       1186  HIT:          1  MISS:       1185  HIT %:   0.084317  MISS %:    99.9157   MPKI: 0.005925
LLC PREFETCH  NON_SPEC    ACCESS:     594993  HIT:       3588  MISS:     591405  HIT %:   0.603032  MISS %:     99.397   MPKI: 2.95702
LLC WRITEBACK NON_SPEC    ACCESS:     223314  HIT:     222916  MISS:        398  HIT %:    99.8218  MISS %:   0.178224   MPKI: 0.00199
LLC CLEAN_EVICTION NON_SPEC    ACCESS:      50377  HIT:      37625  MISS:      12752  HIT %:    74.6869  MISS %:    25.3131   MPKI: 0.06376
LLC COMMIT LOAD NON_SPEC    ACCESS:         22  HIT:          5  MISS:         17  HIT %:    22.7273  MISS %:    77.2727   MPKI: 8.5e-05
LLC LOAD TRANSLATION NON_SPEC    ACCESS:        593  HIT:          6  MISS:        587  HIT %:     1.0118  MISS %:    98.9882   MPKI: 0.002935
LLC TRANSLATION FROM L1D PREFETCHER NON_SPEC    ACCESS:       1544  HIT:          0  MISS:       1544  HIT %:          0  MISS %:        100   MPKI: 0.00772
LLC PREFETCH  REQUESTED:          0  ISSUED:          0  USEFUL:        683  USELESS:     591722
LLC USEFUL LOAD PREFETCHES:        683 PREFETCH ISSUED TO LOWER LEVEL:     591405  ACCURACY: 0.115488
LLC TIMELY PREFETCHES:        683 LATE PREFETCHES: 0 DROPPED PREFETCHES: 0
LLC COMMIT LATE PREFETCHES: 0 MISSED OPPORTUNITY: 0 LATE IN PQ: 0 UNCOVERED: 0
LLC COMMIT LATE MSHR PREFETCHES: 0
LLC MPKI TOTAL: 0.0981 MSHR LATE: 0 PQ LATE: 0 COMMIT LATE: 0 MISSED OPPORTUNITY: 0 UNCOVERED: 0
LLC PREFETCHES SAME FILL-ORIGIN LEVEL: 0 DIFFERENT FILL-ORIGIN LEVEL: 0
LLC AVERAGE MISS LATENCY: 214.467 cycles
LLC AVERAGE MISS LATENCY LOAD: 255.177 cycles
LLC AVERAGE MISS LATENCY PREFETCH: 217.686 cycles
LLC AVERAGE MSHR OCCUPANCY: 4.25004
LLC MSHR FULL: 0
LLC RQ	ACCESS:      23768	FORWARD:          0	MERGED:          0	TO_CACHE:      23768
LLC WQ	ACCESS:     273691	FORWARD:          0	MERGED:          0	TO_CACHE:     273691
LLC PQ	ACCESS:     594993	FORWARD:          0	MERGED:          0	TO_CACHE:     594993

LLC Dense regions hint to LLC: 0

RAW hits: 5673469
Loads Generated: 45770347
Loads sent to L1D: 40096878
Stores Generated: 21712374
Stores sent to L1D: 21712373
Major fault: 0 Minor fault: 7557
Allocated PAGES: 7557
Total Load insts: 49375666
Total Non-spec loads: 15250102
Percentage of speculative loads: 69.1141

LeapFrogging counter: 1002
Commit hits: 16343293 miss: 10333779
Commit hit %: 61.2634 miss %: 38.7366
Commits not translated: 0
Loads retired: 85997
Stores retired: 21712373
Cache fills: 85997
L1D response latency: 160.799 cycles
Load retirement latency: 237.666 cycles
OOO test counter: 0
Discarded buffer inserts: 16343293 hits: 2821 hit %: 0.0172609
LATENCY_FILL: 16.3753 73776

DRAM Statistics
 CHANNEL 0
 RQ ROW_BUFFER_HIT:     152561  ROW_BUFFER_MISS:     461797
 DBUS_CONGESTED:         60
 WQ ROW_BUFFER_HIT:      63247  ROW_BUFFER_MISS:     209923  FULL:          0

 AVG_CONGESTED_CYCLE: 5
 All warmup complete: 2
Channel 0 Bank busy for read cycles: 0
Channel 0 Bank busy for write cycles: 0
Channel 0
Rank 0
0banks busy for read cycles: 263873333
0banks busy for write cycles: 82745
1banks busy for read cycles: 25740737
1banks busy for write cycles: 12686125
2banks busy for read cycles: 5005551
2banks busy for write cycles: 953180
3banks busy for read cycles: 2746981
3banks busy for write cycles: 430709
4banks busy for read cycles: 2013328
4banks busy for write cycles: 226422
5banks busy for read cycles: 1367268
5banks busy for write cycles: 119102
6banks busy for read cycles: 1213900
6banks busy for write cycles: 96922
7banks busy for read cycles: 845694
7banks busy for write cycles: 302311
8banks busy for read cycles: 925784
8banks busy for write cycles: 3448757

CPU 0 Branch Prediction Accuracy: 99.9797% MPKI: 0.020805 Average ROB Occupancy at Mispredict: 63.31
Branch types
NOT_BRANCH: 179514591 89.7573%
BRANCH_DIRECT_JUMP: 1424895 0.712448%
BRANCH_INDIRECT: 16 8e-06%
BRANCH_CONDITIONAL: 13360262 6.68013%
BRANCH_DIRECT_CALL: 2849960 1.42498%
BRANCH_INDIRECT_CALL: 0 0%
BRANCH_RETURN: 2849960 1.42498%
BRANCH_OTHER: 0 0%

DRAM PAGES: 1048576
Allocated PAGES: 7557
