
*** ChampSim Multicore Out-of-Order Simulator ***

Warmup Instructions: 50000000
Simulation Instructions: 200000000
Number of CPUs: 1
LLC sets: 2048
LLC ways: 16
L0D sets: 16
L0D ways: 2
ROB size: 352
LQ size: 128
SQ size: 72
Secure Berti: OFF
Berti: OFF
Berti Fill: OFF
On commit prefetching: ON
Hit-based filter: ON
Time-guarding: ON
Free-slotting: ON
Leap-frogging: ON
Train prefetcher on L0D bypass: OFF
No translation penalty for prefetchers: OFF
Prefetch to L0D only: OFF
Prefetch to L1D only: OFF
Clean evictions: ON
Commit loads: ON
Commit write: ON
Fill commit loads to L2C, LLC: ON
DRAM IO FREQUENCY: 6400
ROB SIZE: 352
Off-chip DRAM Size: 4096 MB Channels: 1 Width: 64-bit Data Rate: 6400 MT/s
CPU 0 runs /home/sumon/secure_berti/GhostMinion/../../traces/spec/654.roms_s-1007B.champsimtrace.xz
.xz
BTB has LRU replacement policy
ITLB has LRU replacement policy
DTLB has LRU replacement policy
STLB has LRU replacement policy
L1I has LRU replacement policy
L0D has LRU replacement policy
History Sets: 8
History Ways: 16
BERTI Size: 16
BERTI Stride Size: 16
L1D has LRU replacement policy
L2C has LRU replacement policy
LLC has LRU replacement policy
Heartbeat CPU 0 instructions: 10000000 cycles: 5299539 heartbeat IPC: 1.88696 cumulative IPC: 1.88696 (Simulation time: 0 hr 1 min 0 sec) 
Heartbeat CPU 0 instructions: 20000003 cycles: 10597573 heartbeat IPC: 1.88749 cumulative IPC: 1.88722 (Simulation time: 0 hr 2 min 0 sec) 
Heartbeat CPU 0 instructions: 30000000 cycles: 15896954 heartbeat IPC: 1.88701 cumulative IPC: 1.88715 (Simulation time: 0 hr 2 min 58 sec) 
Heartbeat CPU 0 instructions: 40000003 cycles: 21196216 heartbeat IPC: 1.88706 cumulative IPC: 1.88713 (Simulation time: 0 hr 3 min 38 sec) 
Heartbeat CPU 0 instructions: 50000003 cycles: 25371787 heartbeat IPC: 2.39488 cumulative IPC: 1.97069 (Simulation time: 0 hr 4 min 25 sec) 

Warmup complete CPU 0 instructions: 50000003 cycles: 25371787 (Simulation time: 0 hr 4 min 25 sec) 

Heartbeat CPU 0 instructions: 60000002 cycles: 42262675 heartbeat IPC: 0.592035 cumulative IPC: 0.592035 (Simulation time: 0 hr 5 min 17 sec) 
Heartbeat CPU 0 instructions: 70000000 cycles: 59512720 heartbeat IPC: 0.579709 cumulative IPC: 0.585807 (Simulation time: 0 hr 6 min 4 sec) 
Heartbeat CPU 0 instructions: 80000000 cycles: 76763512 heartbeat IPC: 0.579684 cumulative IPC: 0.583751 (Simulation time: 0 hr 6 min 52 sec) 
Heartbeat CPU 0 instructions: 90000000 cycles: 94011416 heartbeat IPC: 0.579781 cumulative IPC: 0.582754 (Simulation time: 0 hr 7 min 39 sec) 
Heartbeat CPU 0 instructions: 100000000 cycles: 111255886 heartbeat IPC: 0.579896 cumulative IPC: 0.58218 (Simulation time: 0 hr 8 min 27 sec) 
Heartbeat CPU 0 instructions: 110000000 cycles: 128503764 heartbeat IPC: 0.579781 cumulative IPC: 0.581779 (Simulation time: 0 hr 9 min 14 sec) 
Heartbeat CPU 0 instructions: 120000001 cycles: 144503979 heartbeat IPC: 0.624992 cumulative IPC: 0.587583 (Simulation time: 0 hr 10 min 4 sec) 
Heartbeat CPU 0 instructions: 130000002 cycles: 160054756 heartbeat IPC: 0.643055 cumulative IPC: 0.593987 (Simulation time: 0 hr 11 min 3 sec) 
Heartbeat CPU 0 instructions: 140000000 cycles: 177229642 heartbeat IPC: 0.582245 cumulative IPC: 0.592659 (Simulation time: 0 hr 11 min 50 sec) 
Heartbeat CPU 0 instructions: 150000000 cycles: 194400656 heartbeat IPC: 0.582377 cumulative IPC: 0.591615 (Simulation time: 0 hr 12 min 36 sec) 
Heartbeat CPU 0 instructions: 160000001 cycles: 211571606 heartbeat IPC: 0.582379 cumulative IPC: 0.590763 (Simulation time: 0 hr 13 min 22 sec) 
Heartbeat CPU 0 instructions: 170000000 cycles: 228738831 heartbeat IPC: 0.582505 cumulative IPC: 0.590066 (Simulation time: 0 hr 14 min 8 sec) 
Heartbeat CPU 0 instructions: 180000002 cycles: 245909714 heartbeat IPC: 0.582381 cumulative IPC: 0.589468 (Simulation time: 0 hr 14 min 54 sec) 
Heartbeat CPU 0 instructions: 190000002 cycles: 263080815 heartbeat IPC: 0.582374 cumulative IPC: 0.588955 (Simulation time: 0 hr 15 min 39 sec) 
Heartbeat CPU 0 instructions: 200000001 cycles: 276300488 heartbeat IPC: 0.756448 cumulative IPC: 0.597779 (Simulation time: 0 hr 16 min 31 sec) 
Heartbeat CPU 0 instructions: 210000001 cycles: 294642144 heartbeat IPC: 0.545207 cumulative IPC: 0.594198 (Simulation time: 0 hr 17 min 14 sec) 
Heartbeat CPU 0 instructions: 220000000 cycles: 311820266 heartbeat IPC: 0.582136 cumulative IPC: 0.593475 (Simulation time: 0 hr 17 min 53 sec) 
Heartbeat CPU 0 instructions: 230000000 cycles: 329002087 heartbeat IPC: 0.582011 cumulative IPC: 0.592826 (Simulation time: 0 hr 18 min 32 sec) 
Heartbeat CPU 0 instructions: 240000001 cycles: 346183891 heartbeat IPC: 0.582011 cumulative IPC: 0.592247 (Simulation time: 0 hr 19 min 9 sec) 
Heartbeat CPU 0 instructions: 250000003 cycles: 363362040 heartbeat IPC: 0.582135 cumulative IPC: 0.591733 (Simulation time: 0 hr 19 min 44 sec) 
Finished CPU 0 instructions: 200000000 cycles: 337990253 cumulative IPC: 0.591733 (Simulation time: 0 hr 19 min 44 sec) 
 Instruction ID: 250000098

ChampSim completed all CPUs

Region of Interest Statistics

CPU 0 cumulative IPC: 0.591733 instructions: 200000000 cycles: 337990253
ITLB SPEC fills:          0  NON-SPEC fills:          0
ITLB Test counter :          0
ITLB Leapfrog:          0
ITLB MSHR merge:          0
ITLB TOTAL     ACCESS:   33790995  HIT:   33790993  MISS:          2  HIT %:        100  MISS %: 5.91874e-06   MPKI: 1e-05
ITLB LOAD TRANSLATION NON_SPEC    ACCESS:   33790995  HIT:   33790993  MISS:          2  HIT %:        100  MISS %: 5.91874e-06   MPKI: 1e-05
ITLB PREFETCH  REQUESTED:          0  ISSUED:          0  USEFUL:          0  USELESS:          0
ITLB USEFUL LOAD PREFETCHES:          0 PREFETCH ISSUED TO LOWER LEVEL:          0  ACCURACY: -nan
ITLB TIMELY PREFETCHES:          0 LATE PREFETCHES: 0 DROPPED PREFETCHES: 0
ITLB COMMIT LATE PREFETCHES: 0 MISSED OPPORTUNITY: 0 LATE IN PQ: 0 UNCOVERED: 0
ITLB COMMIT LATE MSHR PREFETCHES: 0
ITLB MPKI TOTAL: 0 MSHR LATE: 0 PQ LATE: 0 COMMIT LATE: 0 MISSED OPPORTUNITY: 0 UNCOVERED: 0
ITLB PREFETCHES SAME FILL-ORIGIN LEVEL: 0 DIFFERENT FILL-ORIGIN LEVEL: 0
ITLB AVERAGE MISS LATENCY: 783 cycles
ITLB AVERAGE MISS LATENCY LOAD: -nan cycles
ITLB AVERAGE MISS LATENCY PREFETCH: -nan cycles
ITLB AVERAGE MSHR OCCUPANCY: 0
ITLB MSHR FULL: 0
ITLB RQ	ACCESS:   42935210	FORWARD:          0	MERGED:    9144214	TO_CACHE:   33790996

DTLB SPEC fills:          0  NON-SPEC fills:          0
DTLB Test counter :          0
DTLB Leapfrog:          0
DTLB MSHR merge:          0
DTLB TOTAL     ACCESS:   58126196  HIT:   58095890  MISS:      30306  HIT %:    99.9479  MISS %:  0.0521383   MPKI: 0.15153
DTLB LOAD TRANSLATION NON_SPEC    ACCESS:   58126196  HIT:   58095890  MISS:      30306  HIT %:    99.9479  MISS %:  0.0521383   MPKI: 0.15153
DTLB PREFETCH  REQUESTED:          0  ISSUED:          0  USEFUL:          0  USELESS:          0
DTLB USEFUL LOAD PREFETCHES:          0 PREFETCH ISSUED TO LOWER LEVEL:          0  ACCURACY: -nan
DTLB TIMELY PREFETCHES:          0 LATE PREFETCHES: 0 DROPPED PREFETCHES: 0
DTLB COMMIT LATE PREFETCHES: 0 MISSED OPPORTUNITY: 0 LATE IN PQ: 0 UNCOVERED: 0
DTLB COMMIT LATE MSHR PREFETCHES: 0
DTLB MPKI TOTAL: 0 MSHR LATE: 0 PQ LATE: 0 COMMIT LATE: 0 MISSED OPPORTUNITY: 0 UNCOVERED: 0
DTLB PREFETCHES SAME FILL-ORIGIN LEVEL: 0 DIFFERENT FILL-ORIGIN LEVEL: 0
DTLB AVERAGE MISS LATENCY: 136.519 cycles
DTLB AVERAGE MISS LATENCY LOAD: -nan cycles
DTLB AVERAGE MISS LATENCY PREFETCH: -nan cycles
DTLB AVERAGE MSHR OCCUPANCY: 0.00796054
DTLB MSHR FULL: 0
DTLB RQ	ACCESS:   67365985	FORWARD:          0	MERGED:    9198098	TO_CACHE:   58167887

STLB SPEC fills:          0  NON-SPEC fills:          0
STLB Test counter :          0
STLB Leapfrog:          0
STLB MSHR merge:          0
STLB TOTAL     ACCESS:    5835577  HIT:    5806425  MISS:      29152  HIT %:    99.5004  MISS %:   0.499556   MPKI: 0.14576
STLB LOAD TRANSLATION NON_SPEC    ACCESS:      30308  HIT:      15614  MISS:      14694  HIT %:    51.5178  MISS %:    48.4822   MPKI: 0.07347
STLB TRANSLATION FROM L1D PREFETCHER NON_SPEC    ACCESS:    5805269  HIT:    5790811  MISS:      14458  HIT %:     99.751  MISS %:    0.24905   MPKI: 0.07229
STLB PREFETCH  REQUESTED:          0  ISSUED:          0  USEFUL:      14452  USELESS:          5
STLB USEFUL LOAD PREFETCHES:      14452 PREFETCH ISSUED TO LOWER LEVEL:          0  ACCURACY: inf
STLB TIMELY PREFETCHES:      14452 LATE PREFETCHES: 3118 DROPPED PREFETCHES: 94523
STLB COMMIT LATE PREFETCHES: 0 MISSED OPPORTUNITY: 0 LATE IN PQ: 0 UNCOVERED: 0
STLB COMMIT LATE MSHR PREFETCHES: 0
STLB MPKI TOTAL: 0 MSHR LATE: 0.01559 PQ LATE: 0 COMMIT LATE: 0 MISSED OPPORTUNITY: 0 UNCOVERED: 0
STLB PREFETCHES SAME FILL-ORIGIN LEVEL: 0 DIFFERENT FILL-ORIGIN LEVEL: 0
STLB AVERAGE MISS LATENCY: 191.816 cycles
STLB AVERAGE MISS LATENCY LOAD: -nan cycles
STLB AVERAGE MISS LATENCY PREFETCH: -nan cycles
STLB AVERAGE MSHR OCCUPANCY: 0.0773945
STLB MSHR FULL: 0
STLB RQ	ACCESS:   28974685	FORWARD:          0	MERGED:   23028176	TO_CACHE:    5946509

STLB Hit, L1D data hit: 0
STLB Hit, L2C data hit: 0
STLB Hit, LLC data hit: 0
STLB Hit, LLC data miss: 0
STLB STLB hints to L2: 0
L0D SPEC fills:   20482959  NON-SPEC fills:          0
L0D TimeGuard Request with older TS:     895899 Restricted eviction:     549907 read:    3985000
L0D Test counter :          0
L0D Leapfrog:          0
L0D MSHR merge:     467790
L0D TOTAL     ACCESS:   41845172  HIT:    5374638  MISS:   36470534  HIT %:    12.8441  MISS %:    87.1559   MPKI: 182.353
L0D LOAD      TOTAL       ACCESS:   41845172  HIT:    5374638  MISS:   36470534  HIT %:    12.8441  MISS %:    87.1559   MPKI: 182.353
L0D LOAD      NON_SPEC    ACCESS:   15454732  HIT:      17064  MISS:   15437668  HIT %:   0.110413  MISS %:    99.8896   MPKI: 77.1883
L0D LOAD      SPEC        ACCESS:   26390440  HIT:    5357574  MISS:   21032866  HIT %:    20.3012  MISS %:    79.6988   MPKI: 105.164
L0D PREFETCH  REQUESTED:          0  ISSUED:          0  USEFUL:          0  USELESS:          0
L0D USEFUL LOAD PREFETCHES:          0 PREFETCH ISSUED TO LOWER LEVEL:          0  ACCURACY: -nan
L0D TIMELY PREFETCHES:          0 LATE PREFETCHES: 0 DROPPED PREFETCHES: 0
L0D COMMIT LATE PREFETCHES: 0 MISSED OPPORTUNITY: 0 LATE IN PQ: 0 UNCOVERED: 0
L0D COMMIT LATE MSHR PREFETCHES: 0
L0D MPKI TOTAL: 184.692 MSHR LATE: 0 PQ LATE: 0 COMMIT LATE: 0 MISSED OPPORTUNITY: 0 UNCOVERED: 0
L0D PREFETCHES SAME FILL-ORIGIN LEVEL: 0 DIFFERENT FILL-ORIGIN LEVEL: 0
L0D AVERAGE MISS LATENCY: 5.87068 cycles
L0D AVERAGE MISS LATENCY LOAD: 5.87068 cycles
L0D AVERAGE MISS LATENCY PREFETCH: -nan cycles
L0D AVERAGE MSHR OCCUPANCY: 0.673773
L0D MSHR FULL: 7.11361e-06
L0D RQ	ACCESS:   48653092	FORWARD:          0	MERGED:    6340137	TO_CACHE:   42312955
L0D WQ	ACCESS:   25053030	FORWARD:          0	MERGED:          0	TO_CACHE:   25053030

L1D SPEC fills:          0  NON-SPEC fills:       9385
L1D Test counter :     117445
L1D Leapfrog:          0
L1D MSHR merge:      48436
L1D TOTAL     ACCESS:   82865934  HIT:   81392969  MISS:    1472965  HIT %:    98.2225  MISS %:    1.77753   MPKI: 7.36482
L1D LOAD      TOTAL       ACCESS:   36470374  HIT:   36285828  MISS:     184546  HIT %:     99.494  MISS %:   0.506016   MPKI: 0.92273
L1D LOAD      NON_SPEC    ACCESS:   15437664  HIT:   15428279  MISS:       9385  HIT %:    99.9392  MISS %:  0.0607929   MPKI: 0.046925
L1D LOAD      SPEC        ACCESS:   21032710  HIT:   20857549  MISS:     175161  HIT %:    99.1672  MISS %:   0.832803   MPKI: 0.875805
L1D RFO       NON_SPEC    ACCESS:   23371919  HIT:   23324267  MISS:      47652  HIT %:    99.7961  MISS %:   0.203886   MPKI: 0.23826
L1D PREFETCH  NON_SPEC    ACCESS:   22506781  HIT:   21426872  MISS:    1079909  HIT %:    95.2019  MISS %:    4.79815   MPKI: 5.39954
L1D COMMIT LOAD NON_SPEC    ACCESS:     315843  HIT:     315496  MISS:        347  HIT %:    99.8901  MISS %:   0.109865   MPKI: 0.001735
L1D COMMIT WRITE NON_SPEC    ACCESS:     201017  HIT:      40506  MISS:     160511  HIT %:    20.1505  MISS %:    79.8495   MPKI: 0.802555
L1D PREFETCH  REQUESTED:   64373704  ISSUED:   34367627  USEFUL:     632344  USELESS:     447614
L1D USEFUL LOAD PREFETCHES:     632344 PREFETCH ISSUED TO LOWER LEVEL:    5733381  ACCURACY: 11.0292
L1D TIMELY PREFETCHES:     632344 LATE PREFETCHES: 48288 DROPPED PREFETCHES: 197702
L1D COMMIT LATE PREFETCHES: 0 MISSED OPPORTUNITY: 0 LATE IN PQ: 0 UNCOVERED: 0
L1D COMMIT LATE MSHR PREFETCHES: 0
L1D MPKI TOTAL: 0.923525 MSHR LATE: 0.24144 PQ LATE: 0 COMMIT LATE: 0 MISSED OPPORTUNITY: 0 UNCOVERED: 0
L1D PREFETCHES SAME FILL-ORIGIN LEVEL: 1151694 DIFFERENT FILL-ORIGIN LEVEL: 4581687
L1D AVERAGE MISS LATENCY: 170.226 cycles
L1D AVERAGE MISS LATENCY LOAD: 159.51 cycles
L1D AVERAGE MISS LATENCY PREFETCH: 198.431 cycles
L1D AVERAGE MSHR OCCUPANCY: 0.958308
L1D MSHR FULL: 0.00387001
L1D RQ	ACCESS:   37104734	FORWARD:          0	MERGED:     318190	TO_CACHE:   36786524
L1D WQ	ACCESS:   25254043	FORWARD:         20	MERGED:    1436826	TO_CACHE:   23817217
L1D PQ	ACCESS:   34367627	FORWARD:          0	MERGED:    5423250	TO_CACHE:   28944377

L1D UNIQUE REGIONS ACCESSED: 0
L1D REGIONS CONFLICTS: 0
L1D Cross Page Prefetch Requests: 3395025
L1D Same Page Prefetch Requests: 39031474
L1D ROI Sum of L1D PQ occupancy: 578723462
L1D PREFETCHES PUSHED FROM L2C: 0
L1I SPEC fills:          0  NON-SPEC fills:          0
L1I Test counter :          0
L1I Leapfrog:          0
L1I MSHR merge:         11
L1I TOTAL     ACCESS:   42935198  HIT:   42935162  MISS:         36  HIT %:    99.9999  MISS %: 8.38473e-05   MPKI: 0.00018
L1I LOAD      TOTAL       ACCESS:   42935198  HIT:   42935162  MISS:         36  HIT %:    99.9999  MISS %: 8.38473e-05   MPKI: 0.00018
L1I LOAD      NON_SPEC    ACCESS:   42935198  HIT:   42935162  MISS:         36  HIT %:    99.9999  MISS %: 8.38473e-05   MPKI: 0.00018
L1I PREFETCH  REQUESTED:          0  ISSUED:          0  USEFUL:          0  USELESS:          0
L1I USEFUL LOAD PREFETCHES:          0 PREFETCH ISSUED TO LOWER LEVEL:          0  ACCURACY: -nan
L1I TIMELY PREFETCHES:          0 LATE PREFETCHES: 0 DROPPED PREFETCHES: 0
L1I COMMIT LATE PREFETCHES: 0 MISSED OPPORTUNITY: 0 LATE IN PQ: 0 UNCOVERED: 0
L1I COMMIT LATE MSHR PREFETCHES: 0
L1I MPKI TOTAL: 0.000235 MSHR LATE: 0 PQ LATE: 0 COMMIT LATE: 0 MISSED OPPORTUNITY: 0 UNCOVERED: 0
L1I PREFETCHES SAME FILL-ORIGIN LEVEL: 0 DIFFERENT FILL-ORIGIN LEVEL: 0
L1I AVERAGE MISS LATENCY: 245.417 cycles
L1I AVERAGE MISS LATENCY LOAD: 245.417 cycles
L1I AVERAGE MISS LATENCY PREFETCH: -nan cycles
L1I AVERAGE MSHR OCCUPANCY: 6.98727e-07
L1I MSHR FULL: 0
L1I RQ	ACCESS:   56459800	FORWARD:          0	MERGED:   13524590	TO_CACHE:   42935210

BTB SPEC fills:          0  NON-SPEC fills:          0
BTB Test counter :          0
BTB Leapfrog:          0
BTB MSHR merge:          0
BTB TOTAL     ACCESS:   12980512  HIT:   11531272  MISS:    1449240  HIT %:    88.8353  MISS %:    11.1647   MPKI: 7.2462
BTB BRANCH_DIRECT_JUMP	ACCESS:    1449216  HIT:    1449208  MISS:          8
BTB BRANCH_INDIRECT	ACCESS:          0  HIT:          0  MISS:          0
BTB BRANCH_CONDITIONAL	ACCESS:    5734548  HIT:    5734517  MISS:         31
BTB BRANCH_DIRECT_CALL	ACCESS:    2898375  HIT:    2898365  MISS:         10
BTB BRANCH_INDIRECT_CALL	ACCESS:          0  HIT:          0  MISS:          0
BTB BRANCH_RETURN	ACCESS:    2898373  HIT:    1449182  MISS:    1449191
BTB BRANCH_OTHER ACCESS:          0  HIT:          0  MISS:          0

L2C SPEC fills:          0  NON-SPEC fills:       4066
L2C Test counter :     117242
L2C Leapfrog:          0
L2C MSHR merge:      28841
L2C TOTAL     ACCESS:    5917939  HIT:    4522975  MISS:    1394964  HIT %:    76.4282  MISS %:    23.5718   MPKI: 6.97482
L2C LOAD      TOTAL       ACCESS:     136250  HIT:      62747  MISS:      73503  HIT %:    46.0528  MISS %:    53.9472   MPKI: 0.367515
L2C LOAD      NON_SPEC    ACCESS:       7819  HIT:       3717  MISS:       4102  HIT %:     47.538  MISS %:     52.462   MPKI: 0.02051
L2C LOAD      SPEC        ACCESS:     128431  HIT:      59030  MISS:      69401  HIT %:    45.9624  MISS %:    54.0376   MPKI: 0.347005
L2C RFO       NON_SPEC    ACCESS:      24378  HIT:       4435  MISS:      19943  HIT %:    18.1926  MISS %:    81.8074   MPKI: 0.099715
L2C PREFETCH  NON_SPEC    ACCESS:    4589111  HIT:    3347283  MISS:    1241828  HIT %:    72.9397  MISS %:    27.0603   MPKI: 6.20914
L2C WRITEBACK NON_SPEC    ACCESS:     418274  HIT:     417862  MISS:        412  HIT %:    99.9015  MISS %:     0.0985   MPKI: 0.00206
L2C CLEAN_EVICTION NON_SPEC    ACCESS:     117444  HIT:      64342  MISS:      53102  HIT %:    54.7853  MISS %:    45.2147   MPKI: 0.26551
L2C COMMIT LOAD NON_SPEC    ACCESS:        336  HIT:        274  MISS:         62  HIT %:    81.5476  MISS %:    18.4524   MPKI: 0.00031
L2C LOAD TRANSLATION NON_SPEC    ACCESS:      71813  HIT:      69607  MISS:       2206  HIT %:    96.9281  MISS %:    3.07187   MPKI: 0.01103
L2C TRANSLATION FROM L1D PREFETCHER NON_SPEC    ACCESS:     560333  HIT:     556425  MISS:       3908  HIT %:    99.3026  MISS %:   0.697442   MPKI: 0.01954
L2C PREFETCH  REQUESTED:          0  ISSUED:          0  USEFUL:      61669  USELESS:    1183913
L2C USEFUL LOAD PREFETCHES:      61669 PREFETCH ISSUED TO LOWER LEVEL:    1277370  ACCURACY: 4.82781
L2C TIMELY PREFETCHES:      61669 LATE PREFETCHES: 35542 DROPPED PREFETCHES: 0
L2C COMMIT LATE PREFETCHES: 0 MISSED OPPORTUNITY: 0 LATE IN PQ: 0 UNCOVERED: 0
L2C COMMIT LATE MSHR PREFETCHES: 0
L2C MPKI TOTAL: 0.367515 MSHR LATE: 0.17771 PQ LATE: 0 COMMIT LATE: 0 MISSED OPPORTUNITY: 0 UNCOVERED: 0
L2C PREFETCHES SAME FILL-ORIGIN LEVEL: 714482 DIFFERENT FILL-ORIGIN LEVEL: 0
L2C AVERAGE MISS LATENCY: 305.032 cycles
L2C AVERAGE MISS LATENCY LOAD: 257.449 cycles
L2C AVERAGE MISS LATENCY PREFETCH: 320.162 cycles
L2C AVERAGE MSHR OCCUPANCY: 7.10033
L2C MSHR FULL: 0.00328068
L2C RQ	ACCESS:     793167	FORWARD:          0	MERGED:          0	TO_CACHE:     793110
L2C WQ	ACCESS:     535719	FORWARD:         57	MERGED:          1	TO_CACHE:     535718
L2C PQ	ACCESS:    5699300	FORWARD:          0	MERGED:       4351	TO_CACHE:    5694949

L2C Instructions Evicting Data 36
L2C Translations Evicting Data 6105
L2C Data Evicting Data 1260017
L2C Instructions Evicting Instructions 0
L2C Translations Evicting Instructions 0
L2C Data Evicting Instructions 36
L2C Instructions Evicting Translations 0
L2C Translations Evicting Translations 9
L2C Data Evicting Translations 5846
L2C Dense regions hint from L2: 0
PSCL5 SPEC fills:          0  NON-SPEC fills:          0
PSCL5 Test counter :          0
PSCL5 Leapfrog:          0
PSCL5 MSHR merge:          0
PSCL5 TOTAL     ACCESS:          0  HIT:          0  MISS:          0  HIT %:       -nan  MISS %:       -nan   MPKI: 0
PSCL5 PREFETCH  REQUESTED:          0  ISSUED:          0  USEFUL:          0  USELESS:          0
PSCL5 USEFUL LOAD PREFETCHES:          0 PREFETCH ISSUED TO LOWER LEVEL:          0  ACCURACY: -nan
PSCL5 TIMELY PREFETCHES:          0 LATE PREFETCHES: 0 DROPPED PREFETCHES: 0
PSCL5 COMMIT LATE PREFETCHES: 0 MISSED OPPORTUNITY: 0 LATE IN PQ: 0 UNCOVERED: 0
PSCL5 COMMIT LATE MSHR PREFETCHES: 0
PSCL5 MPKI TOTAL: 0 MSHR LATE: 0 PQ LATE: 0 COMMIT LATE: 0 MISSED OPPORTUNITY: 0 UNCOVERED: 0
PSCL5 PREFETCHES SAME FILL-ORIGIN LEVEL: 0 DIFFERENT FILL-ORIGIN LEVEL: 0

PSCL4 SPEC fills:          0  NON-SPEC fills:          0
PSCL4 Test counter :          0
PSCL4 Leapfrog:          0
PSCL4 MSHR merge:          0
PSCL4 TOTAL     ACCESS:          0  HIT:          0  MISS:          0  HIT %:       -nan  MISS %:       -nan   MPKI: 0
PSCL4 PREFETCH  REQUESTED:          0  ISSUED:          0  USEFUL:          0  USELESS:          0
PSCL4 USEFUL LOAD PREFETCHES:          0 PREFETCH ISSUED TO LOWER LEVEL:          0  ACCURACY: -nan
PSCL4 TIMELY PREFETCHES:          0 LATE PREFETCHES: 0 DROPPED PREFETCHES: 0
PSCL4 COMMIT LATE PREFETCHES: 0 MISSED OPPORTUNITY: 0 LATE IN PQ: 0 UNCOVERED: 0
PSCL4 COMMIT LATE MSHR PREFETCHES: 0
PSCL4 MPKI TOTAL: 0 MSHR LATE: 0 PQ LATE: 0 COMMIT LATE: 0 MISSED OPPORTUNITY: 0 UNCOVERED: 0
PSCL4 PREFETCHES SAME FILL-ORIGIN LEVEL: 0 DIFFERENT FILL-ORIGIN LEVEL: 0

PSCL3 SPEC fills:          0  NON-SPEC fills:          0
PSCL3 Test counter :          0
PSCL3 Leapfrog:          0
PSCL3 MSHR merge:          0
PSCL3 TOTAL     ACCESS:          0  HIT:          0  MISS:          0  HIT %:       -nan  MISS %:       -nan   MPKI: 0
PSCL3 PREFETCH  REQUESTED:          0  ISSUED:          0  USEFUL:          0  USELESS:          0
PSCL3 USEFUL LOAD PREFETCHES:          0 PREFETCH ISSUED TO LOWER LEVEL:          0  ACCURACY: -nan
PSCL3 TIMELY PREFETCHES:          0 LATE PREFETCHES: 0 DROPPED PREFETCHES: 0
PSCL3 COMMIT LATE PREFETCHES: 0 MISSED OPPORTUNITY: 0 LATE IN PQ: 0 UNCOVERED: 0
PSCL3 COMMIT LATE MSHR PREFETCHES: 0
PSCL3 MPKI TOTAL: 0 MSHR LATE: 0 PQ LATE: 0 COMMIT LATE: 0 MISSED OPPORTUNITY: 0 UNCOVERED: 0
PSCL3 PREFETCHES SAME FILL-ORIGIN LEVEL: 0 DIFFERENT FILL-ORIGIN LEVEL: 0

PSCL2 SPEC fills:          0  NON-SPEC fills:          0
PSCL2 Test counter :          0
PSCL2 Leapfrog:          0
PSCL2 MSHR merge:          0
PSCL2 TOTAL     ACCESS:          0  HIT:          0  MISS:          0  HIT %:       -nan  MISS %:       -nan   MPKI: 0
PSCL2 PREFETCH  REQUESTED:          0  ISSUED:          0  USEFUL:          0  USELESS:          0
PSCL2 USEFUL LOAD PREFETCHES:          0 PREFETCH ISSUED TO LOWER LEVEL:          0  ACCURACY: -nan
PSCL2 TIMELY PREFETCHES:          0 LATE PREFETCHES: 0 DROPPED PREFETCHES: 0
PSCL2 COMMIT LATE PREFETCHES: 0 MISSED OPPORTUNITY: 0 LATE IN PQ: 0 UNCOVERED: 0
PSCL2 COMMIT LATE MSHR PREFETCHES: 0
PSCL2 MPKI TOTAL: 0 MSHR LATE: 0 PQ LATE: 0 COMMIT LATE: 0 MISSED OPPORTUNITY: 0 UNCOVERED: 0
PSCL2 PREFETCHES SAME FILL-ORIGIN LEVEL: 0 DIFFERENT FILL-ORIGIN LEVEL: 0

LLC SPEC fills:          0  NON-SPEC fills:       3086
LLC Test counter :     117221
LLC Leapfrog:          0
LLC MSHR merge:          0
LLC TOTAL     ACCESS:    1876181  HIT:     510856  MISS:    1365325  HIT %:    27.2285  MISS %:    72.7715   MPKI: 6.82662
LLC LOAD      TOTAL       ACCESS:      44661  HIT:       1340  MISS:      43321  HIT %:    3.00038  MISS %:    96.9996   MPKI: 0.216605
LLC LOAD      NON_SPEC    ACCESS:       3154  HIT:         32  MISS:       3122  HIT %:    1.01458  MISS %:    98.9854   MPKI: 0.01561
LLC LOAD      SPEC        ACCESS:      41507  HIT:       1308  MISS:      40199  HIT %:    3.15128  MISS %:    96.8487   MPKI: 0.200995
LLC RFO       NON_SPEC    ACCESS:      13242  HIT:          0  MISS:      13242  HIT %:          0  MISS %:        100   MPKI: 0.06621
LLC PREFETCH  NON_SPEC    ACCESS:    1277370  HIT:       5873  MISS:    1271497  HIT %:   0.459773  MISS %:    99.5402   MPKI: 6.35748
LLC WRITEBACK NON_SPEC    ACCESS:     417490  HIT:     417084  MISS:        406  HIT %:    99.9028  MISS %:  0.0972478   MPKI: 0.00203
LLC CLEAN_EVICTION NON_SPEC    ACCESS:     117242  HIT:      86530  MISS:      30712  HIT %:    73.8046  MISS %:    26.1954   MPKI: 0.15356
LLC COMMIT LOAD NON_SPEC    ACCESS:         62  HIT:         21  MISS:         41  HIT %:     33.871  MISS %:     66.129   MPKI: 0.000205
LLC LOAD TRANSLATION NON_SPEC    ACCESS:       2206  HIT:          8  MISS:       2198  HIT %:   0.362647  MISS %:    99.6374   MPKI: 0.01099
LLC TRANSLATION FROM L1D PREFETCHER NON_SPEC    ACCESS:       3908  HIT:          0  MISS:       3908  HIT %:          0  MISS %:        100   MPKI: 0.01954
LLC PREFETCH  REQUESTED:          0  ISSUED:          0  USEFUL:        862  USELESS:    1273866
LLC USEFUL LOAD PREFETCHES:        862 PREFETCH ISSUED TO LOWER LEVEL:    1271497  ACCURACY: 0.0677941
LLC TIMELY PREFETCHES:        862 LATE PREFETCHES: 0 DROPPED PREFETCHES: 0
LLC COMMIT LATE PREFETCHES: 0 MISSED OPPORTUNITY: 0 LATE IN PQ: 0 UNCOVERED: 0
LLC COMMIT LATE MSHR PREFETCHES: 0
LLC MPKI TOTAL: 0.216605 MSHR LATE: 0 PQ LATE: 0 COMMIT LATE: 0 MISSED OPPORTUNITY: 0 UNCOVERED: 0
LLC PREFETCHES SAME FILL-ORIGIN LEVEL: 0 DIFFERENT FILL-ORIGIN LEVEL: 0
LLC AVERAGE MISS LATENCY: 284.854 cycles
LLC AVERAGE MISS LATENCY LOAD: 250.591 cycles
LLC AVERAGE MISS LATENCY PREFETCH: 292.401 cycles
LLC AVERAGE MSHR OCCUPANCY: 6.24283
LLC MSHR FULL: 0
LLC RQ	ACCESS:      64080	FORWARD:          0	MERGED:          0	TO_CACHE:      64079
LLC WQ	ACCESS:     534732	FORWARD:          1	MERGED:          0	TO_CACHE:     534732
LLC PQ	ACCESS:    1277370	FORWARD:          0	MERGED:          0	TO_CACHE:    1277370

LLC Dense regions hint to LLC: 0

RAW hits: 5911014
Loads Generated: 54564106
Loads sent to L1D: 48653092
Stores Generated: 25053029
Stores sent to L1D: 25053030
Major fault: 0 Minor fault: 17838
Allocated PAGES: 17838
Total Load insts: 59646473
Total Non-spec loads: 16941741
Percentage of speculative loads: 71.5964

LeapFrogging counter: 13524
Commit hits: 20176421 miss: 13021627
Commit hit %: 60.7759 miss %: 39.2241
Commits not translated: 0
Loads retired: 184546
Stores retired: 25053030
Cache fills: 184546
L1D response latency: 159.51 cycles
Load retirement latency: 230.258 cycles
OOO test counter: 0
Discarded buffer inserts: 20176421 hits: 4881 hit %: 0.0241916
LATENCY_FILL: 44.3757 200359

DRAM Statistics
 CHANNEL 0
 RQ ROW_BUFFER_HIT:     425641  ROW_BUFFER_MISS:     908565
 DBUS_CONGESTED:        109
 WQ ROW_BUFFER_HIT:      85453  ROW_BUFFER_MISS:     448901  FULL:          0

 AVG_CONGESTED_CYCLE: 5
 All warmup complete: 2
Channel 0 Bank busy for read cycles: 0
Channel 0 Bank busy for write cycles: 0
Channel 0
Rank 0
0banks busy for read cycles: 257150599
0banks busy for write cycles: 88215
1banks busy for read cycles: 26204300
1banks busy for write cycles: 13555884
2banks busy for read cycles: 4642855
2banks busy for write cycles: 1016590
3banks busy for read cycles: 3797310
3banks busy for write cycles: 482502
4banks busy for read cycles: 4242893
4banks busy for write cycles: 276979
5banks busy for read cycles: 4529428
5banks busy for write cycles: 174858
6banks busy for read cycles: 4231859
6banks busy for write cycles: 147719
7banks busy for read cycles: 3700014
7banks busy for write cycles: 726782
8banks busy for read cycles: 3670260
8banks busy for write cycles: 9351207

CPU 0 Branch Prediction Accuracy: 99.9742% MPKI: 0.027965 Average ROB Occupancy at Mispredict: 84.4658
Branch types
NOT_BRANCH: 178321210 89.1606%
BRANCH_DIRECT_JUMP: 1449216 0.724608%
BRANCH_INDIRECT: 0 0%
BRANCH_CONDITIONAL: 14432543 7.21627%
BRANCH_DIRECT_CALL: 2898375 1.44919%
BRANCH_INDIRECT_CALL: 0 0%
BRANCH_RETURN: 2898373 1.44919%
BRANCH_OTHER: 0 0%

DRAM PAGES: 1048576
Allocated PAGES: 17838
