
*** ChampSim Multicore Out-of-Order Simulator ***

Warmup Instructions: 50000000
Simulation Instructions: 200000000
Number of CPUs: 1
LLC sets: 2048
LLC ways: 16
Off-chip DRAM Size: 4096 MB Channels: 1 Width: 64-bit Data Rate: 6400 MT/s
CPU 0 runs /home/sumon/secure_berti/Berti_Baseline/../../traces/spec/600.perlbench_s-570B.champsimtrace.xz
.xz
BTB has LRU replacement policy
ITLB has LRU replacement policy
DTLB has LRU replacement policy
STLB has LRU replacement policy
L1I has LRU replacement policy
L1D has LRU replacement policy
L2C has LRU replacement policy
LLC has LRU replacement policy
Heartbeat CPU 0 instructions: 10000003 cycles: 2894052 heartbeat IPC: 3.45536 cumulative IPC: 3.45536 (Simulation time: 0 hr 0 min 38 sec) 
Heartbeat CPU 0 instructions: 20000003 cycles: 5752873 heartbeat IPC: 3.49795 cumulative IPC: 3.47652 (Simulation time: 0 hr 1 min 22 sec) 
Heartbeat CPU 0 instructions: 30000003 cycles: 8648414 heartbeat IPC: 3.45359 cumulative IPC: 3.46884 (Simulation time: 0 hr 2 min 10 sec) 
Heartbeat CPU 0 instructions: 40000002 cycles: 11519789 heartbeat IPC: 3.48265 cumulative IPC: 3.47229 (Simulation time: 0 hr 3 min 1 sec) 
Heartbeat CPU 0 instructions: 50000002 cycles: 14389462 heartbeat IPC: 3.48472 cumulative IPC: 3.47477 (Simulation time: 0 hr 3 min 46 sec) 

Warmup complete CPU 0 instructions: 50000002 cycles: 14389462 (Simulation time: 0 hr 3 min 46 sec) 

Heartbeat CPU 0 instructions: 60000000 cycles: 28599057 heartbeat IPC: 0.70375 cumulative IPC: 0.70375 (Simulation time: 0 hr 4 min 45 sec) 
Heartbeat CPU 0 instructions: 70000000 cycles: 51039805 heartbeat IPC: 0.445618 cumulative IPC: 0.545697 (Simulation time: 0 hr 5 min 48 sec) 
Heartbeat CPU 0 instructions: 80000002 cycles: 74922634 heartbeat IPC: 0.418711 cumulative IPC: 0.495596 (Simulation time: 0 hr 6 min 57 sec) 
Heartbeat CPU 0 instructions: 90000003 cycles: 103150999 heartbeat IPC: 0.354254 cumulative IPC: 0.450646 (Simulation time: 0 hr 8 min 11 sec) 
Heartbeat CPU 0 instructions: 100000002 cycles: 118481259 heartbeat IPC: 0.652305 cumulative IPC: 0.480345 (Simulation time: 0 hr 9 min 15 sec) 
Heartbeat CPU 0 instructions: 110000000 cycles: 133722756 heartbeat IPC: 0.656103 cumulative IPC: 0.502793 (Simulation time: 0 hr 10 min 11 sec) 
Heartbeat CPU 0 instructions: 120000003 cycles: 149781573 heartbeat IPC: 0.622711 cumulative IPC: 0.517017 (Simulation time: 0 hr 11 min 18 sec) 
Heartbeat CPU 0 instructions: 130000000 cycles: 165653578 heartbeat IPC: 0.63004 cumulative IPC: 0.528876 (Simulation time: 0 hr 12 min 28 sec) 
Heartbeat CPU 0 instructions: 140000003 cycles: 194522051 heartbeat IPC: 0.346399 cumulative IPC: 0.499632 (Simulation time: 0 hr 13 min 46 sec) 
Heartbeat CPU 0 instructions: 150000002 cycles: 221098570 heartbeat IPC: 0.376272 cumulative IPC: 0.483772 (Simulation time: 0 hr 15 min 8 sec) 
Heartbeat CPU 0 instructions: 160000001 cycles: 243390431 heartbeat IPC: 0.448594 cumulative IPC: 0.480347 (Simulation time: 0 hr 16 min 14 sec) 
Heartbeat CPU 0 instructions: 170000001 cycles: 260295481 heartbeat IPC: 0.591539 cumulative IPC: 0.487991 (Simulation time: 0 hr 17 min 19 sec) 
Heartbeat CPU 0 instructions: 180000000 cycles: 281299949 heartbeat IPC: 0.476089 cumulative IPC: 0.487055 (Simulation time: 0 hr 19 min 27 sec) 
Heartbeat CPU 0 instructions: 190000001 cycles: 310042457 heartbeat IPC: 0.347917 cumulative IPC: 0.473528 (Simulation time: 0 hr 24 min 14 sec) 
Heartbeat CPU 0 instructions: 200000001 cycles: 337162658 heartbeat IPC: 0.368729 cumulative IPC: 0.464723 (Simulation time: 0 hr 29 min 8 sec) 
Heartbeat CPU 0 instructions: 210000000 cycles: 358216627 heartbeat IPC: 0.47497 cumulative IPC: 0.46535 (Simulation time: 0 hr 32 min 56 sec) 
Heartbeat CPU 0 instructions: 220000000 cycles: 374369841 heartbeat IPC: 0.619072 cumulative IPC: 0.472248 (Simulation time: 0 hr 36 min 5 sec) 
Heartbeat CPU 0 instructions: 230000000 cycles: 389176677 heartbeat IPC: 0.675364 cumulative IPC: 0.480273 (Simulation time: 0 hr 37 min 2 sec) 
Heartbeat CPU 0 instructions: 240000002 cycles: 405025126 heartbeat IPC: 0.630977 cumulative IPC: 0.486387 (Simulation time: 0 hr 37 min 45 sec) 
Heartbeat CPU 0 instructions: 250000003 cycles: 421543717 heartbeat IPC: 0.605379 cumulative IPC: 0.491214 (Simulation time: 0 hr 38 min 11 sec) 
Finished CPU 0 instructions: 200000001 cycles: 407154255 cumulative IPC: 0.491214 (Simulation time: 0 hr 38 min 11 sec) 

ChampSim completed all CPUs

Region of Interest Statistics

CPU 0 cumulative IPC: 0.491214 instructions: 200000001 cycles: 407154255
ITLB TOTAL     ACCESS:   31228165  HIT:   31153617  MISS:      74548  HIT %:    99.7613  MISS %:    0.23872   MPKI: 0.37274
ITLB Test counter:          0
ITLB LOAD TRANSLATION ACCESS:   31228165  HIT:   31153617  MISS:      74548  HIT %:    99.7613  MISS %:    0.23872   MPKI: 0.37274
ITLB PREFETCH  REQUESTED:          0  ISSUED:          0  USEFUL:          0  USELESS:          0
ITLB USEFUL LOAD PREFETCHES:          0 PREFETCH ISSUED TO LOWER LEVEL:          0  ACCURACY: -nan
ITLB TIMELY PREFETCHES:          0 LATE PREFETCHES: 0 DROPPED PREFETCHES: 0
ITLB COMMIT LATE PREFETCHES: 0 MISSED OPPORTUNITY: 0 LATE IN PQ: 0 UNCOVERED: 0
ITLB COMMIT LATE MSHR PREFETCHES: 0
ITLB MPKI TOTAL: 0 MSHR LATE: 0 PQ LATE: 0 COMMIT LATE: 0 MISSED OPPORTUNITY: 0 UNCOVERED: 0
ITLB PREFETCHES SAME FILL-ORIGIN LEVEL: 0 DIFFERENT FILL-ORIGIN LEVEL: 0
ITLB AVERAGE MISS LATENCY: 9.82 cycles
ITLB AVERAGE MISS LATENCY LOAD: -nan cycles
ITLB AVERAGE MISS LATENCY PREFETCH: -nan cycles
ITLB AVERAGE MSHR OCCUPANCY: 0.00133994
ITLB MSHR FULL: 0
ITLB RQ	ACCESS:   35195940	FORWARD:          0	MERGED:    3940077	TO_CACHE:   31255863

DTLB TOTAL     ACCESS:   54956612  HIT:   54418697  MISS:     537915  HIT %:    99.0212  MISS %:   0.978799   MPKI: 2.68957
DTLB Test counter:          0
DTLB LOAD TRANSLATION ACCESS:   54956612  HIT:   54418697  MISS:     537915  HIT %:    99.0212  MISS %:   0.978799   MPKI: 2.68957
DTLB PREFETCH  REQUESTED:          0  ISSUED:          0  USEFUL:          0  USELESS:          0
DTLB USEFUL LOAD PREFETCHES:          0 PREFETCH ISSUED TO LOWER LEVEL:          0  ACCURACY: -nan
DTLB TIMELY PREFETCHES:          0 LATE PREFETCHES: 0 DROPPED PREFETCHES: 0
DTLB COMMIT LATE PREFETCHES: 0 MISSED OPPORTUNITY: 0 LATE IN PQ: 0 UNCOVERED: 0
DTLB COMMIT LATE MSHR PREFETCHES: 0
DTLB MPKI TOTAL: 0 MSHR LATE: 0 PQ LATE: 0 COMMIT LATE: 0 MISSED OPPORTUNITY: 0 UNCOVERED: 0
DTLB PREFETCHES SAME FILL-ORIGIN LEVEL: 0 DIFFERENT FILL-ORIGIN LEVEL: 0
DTLB AVERAGE MISS LATENCY: 12.9159 cycles
DTLB AVERAGE MISS LATENCY LOAD: -nan cycles
DTLB AVERAGE MISS LATENCY PREFETCH: -nan cycles
DTLB AVERAGE MSHR OCCUPANCY: 0.0123014
DTLB MSHR FULL: 1.3461e-06
DTLB RQ	ACCESS:   75546411	FORWARD:          0	MERGED:   20572904	TO_CACHE:   54973507

STLB TOTAL     ACCESS:     612463  HIT:     588652  MISS:      23811  HIT %:    96.1123  MISS %:    3.88775   MPKI: 0.119055
STLB Test counter:          0
STLB LOAD TRANSLATION ACCESS:     612463  HIT:     588652  MISS:      23811  HIT %:    96.1123  MISS %:    3.88775   MPKI: 0.119055
STLB PREFETCH  REQUESTED:          0  ISSUED:          0  USEFUL:          0  USELESS:          0
STLB USEFUL LOAD PREFETCHES:          0 PREFETCH ISSUED TO LOWER LEVEL:          0  ACCURACY: -nan
STLB TIMELY PREFETCHES:          0 LATE PREFETCHES: 0 DROPPED PREFETCHES: 0
STLB COMMIT LATE PREFETCHES: 0 MISSED OPPORTUNITY: 0 LATE IN PQ: 0 UNCOVERED: 0
STLB COMMIT LATE MSHR PREFETCHES: 0
STLB MPKI TOTAL: 0 MSHR LATE: 0 PQ LATE: 0 COMMIT LATE: 0 MISSED OPPORTUNITY: 0 UNCOVERED: 0
STLB PREFETCHES SAME FILL-ORIGIN LEVEL: 0 DIFFERENT FILL-ORIGIN LEVEL: 0
STLB AVERAGE MISS LATENCY: 90.2981 cycles
STLB AVERAGE MISS LATENCY LOAD: -nan cycles
STLB AVERAGE MISS LATENCY PREFETCH: -nan cycles
STLB AVERAGE MSHR OCCUPANCY: 0.0067253
STLB MSHR FULL: 0
STLB RQ	ACCESS:     612463	FORWARD:          0	MERGED:          0	TO_CACHE:     612463

STLB Hit, L1D data hit: 0
STLB Hit, L2C data hit: 0
STLB Hit, LLC data hit: 0
STLB Hit, LLC data miss: 0
STLB STLB hints to L2: 0
L1D TOTAL     ACCESS:   75416014  HIT:   74842154  MISS:     573860  HIT %:    99.2391  MISS %:   0.760926   MPKI: 2.8693
L1D Test counter:          0
L1D LOAD      ACCESS:   36250403  HIT:   35725423  MISS:     564645  HIT %:    98.5518  MISS %:     1.4482   MPKI: 2.6249
L1D RFO       ACCESS:   39165611  HIT:   39116731  MISS:      48880  HIT %:    99.8752  MISS %:   0.124803   MPKI: 0.2444
L1D PREFETCH  REQUESTED:          0  ISSUED:          0  USEFUL:          0  USELESS:          0
L1D USEFUL LOAD PREFETCHES:          0 PREFETCH ISSUED TO LOWER LEVEL:          0  ACCURACY: -nan
L1D TIMELY PREFETCHES:          0 LATE PREFETCHES: 0 DROPPED PREFETCHES: 0
L1D COMMIT LATE PREFETCHES: 0 MISSED OPPORTUNITY: 0 LATE IN PQ: 0 UNCOVERED: 0
L1D COMMIT LATE MSHR PREFETCHES: 0
L1D MPKI TOTAL: 2.82322 MSHR LATE: 0 PQ LATE: 0 COMMIT LATE: 0 MISSED OPPORTUNITY: 0 UNCOVERED: 0
L1D PREFETCHES SAME FILL-ORIGIN LEVEL: 0 DIFFERENT FILL-ORIGIN LEVEL: 0
L1D AVERAGE MISS LATENCY: 79.9697 cycles
L1D AVERAGE MISS LATENCY LOAD: 82.1273 cycles
L1D AVERAGE MISS LATENCY PREFETCH: -nan cycles
L1D AVERAGE MSHR OCCUPANCY: 0.0274782
L1D MSHR FULL: 1.49902e-05
L1D RQ	ACCESS:   46685890	FORWARD:          0	MERGED:    9260042	TO_CACHE:   36290065
L1D WQ	ACCESS:   39740638	FORWARD:    1135783	MERGED:     484292	TO_CACHE:   39256346

L1D UNIQUE REGIONS ACCESSED: 0
L1D REGIONS CONFLICTS: 0
L1D Cross Page Prefetch Requests: 0
L1D Same Page Prefetch Requests: 0
L1D ROI Sum of L1D PQ occupancy: 0
L1D PREFETCHES PUSHED FROM L2C: 0
45b33b: 1
60b397: 1
4d9207: 1
45e538: 1
60bc95: 1
47aa95: 1
476711: 1
45b12b: 1
60aa63: 1
60bffa: 1
60c120: 1
60a90f: 1
60bb25: 1
60c4d0: 1
60c095: 1
60c285: 1
60abaf: 1
608dbd: 1
60c645: 1
60bc90: 1
60bc9a: 1
4dde64: 1
60bad0: 1
41b651: 1
60acff: 1
60b1f9: 1
4dde60: 1
60be76: 1
60a967: 1
4596fd: 1
4d1072: 1
463960: 1
60a5aa: 1
477e21: 1
60bf98: 1
463364: 1
477dc2: 1
60b0ae: 1
41851b: 1
60bff0: 1
60b23f: 1
4d709f: 1
60a2d3: 1
60acb9: 1
60be65: 1
60c09d: 1
4b93f2: 1
4cc602: 1
60b0ca: 1
412b2c: 1
4c23d1: 1
60b36a: 1
478488: 1
5ee9b5: 1
60a70b: 1
60a385: 1
60ac07: 1
4d7657: 1
60a8c9: 1
5ee91a: 1
41881a: 1
4d7078: 1
60c605: 1
418227: 1
421b01: 1
60c330: 1
45a1a9: 1
60befd: 1
60bb60: 1
4cce68: 1
45a54a: 1
60c8d0: 1
50fd75: 1
60c235: 1
47aa8d: 1
420fd9: 1
479b57: 1
41afbb: 1
4d90a0: 1
60c0d5: 1
4cd280: 1
475f2d: 1
60a779: 1
60c612: 1
60ad03: 1
5f2de7: 1
60baa2: 1
60bef5: 1
45b869: 1
60bef0: 1
4ca541: 1
45afee: 1
6097f4: 1
60ba17: 1
473b42: 1
422add: 1
422a83: 1
422a6b: 1
418060: 1
418137: 1
47da8d: 1
45e1c0: 1
458cb6: 1
470893: 1
60c0dd: 1
60ad07: 1
60af7a: 1
60c00a: 1
60c895: 1
47a857: 1
419014: 1
60b687: 1
47088f: 1
478d62: 1
60c845: 1
4573ef: 1
60b2e7: 1
60b4d7: 1
4c52dd: 1
5f1ee0: 1
50fb72: 1
60bbc8: 1
60c8c8: 1
45abdf: 1
5fa4c4: 1
60b5e9: 1
47aa91: 1
420fab: 1
5f067b: 1
60bc40: 1
4a83f7: 1
4d70b4: 1
60aff7: 1
5ef440: 1
47de8d: 1
609a11: 1
4195ba: 1
60b0ef: 1
45e0d4: 1
4181fd: 1
5f1f59: 1
60b827: 1
4d115a: 1
4706fe: 1
470573: 1
4704ea: 1
4ce61c: 1
4a8460: 1
45abe2: 1
60aab7: 1
47a7e4: 1
47a941: 1
47d5a6: 1
469781: 1
4770ce: 1
4cce59: 1
47dd19: 1
60a7c7: 1
4d9780: 1
457219: 1
60b8c7: 2
60b0f3: 2
60c3ba: 2
60c3b5: 2
60ba90: 2
60c2bd: 2
47b5d9: 2
4be618: 2
45b0cb: 2
47de7b: 2
4c580b: 2
4ccdaf: 2
60be60: 2
60abb7: 2
498580: 2
60b197: 2
47c7ad: 2
5ef7a0: 2
5f0b40: 2
60c80a: 2
4c59f1: 2
609a20: 2
4be828: 2
60c002: 2
4696db: 2
60c2c5: 2
4d64ad: 2
60a34c: 2
609560: 2
41a35c: 2
4dadce: 2
45af9f: 2
60a5a1: 2
60aa57: 2
60b193: 2
5ee9c2: 2
524878: 2
609050: 2
60c04e: 2
60c328: 2
479b36: 2
60c812: 2
60b38f: 2
60c358: 2
60c489: 2
60c805: 2
5eecb4: 2
60be1a: 2
4cd455: 2
463945: 2
60bae5: 2
47d930: 2
60b4df: 2
47b13e: 2
4a8404: 2
4c2353: 2
4d375e: 2
4d8b20: 2
6067ee: 2
60a325: 2
50feb0: 2
46e518: 2
60c885: 2
4d116d: 2
60a2cb: 2
60afa3: 2
478d57: 2
4cb576: 2
60a913: 2
4be665: 2
4bea27: 2
60a917: 2
60a38d: 2
60c24a: 2
463a99: 2
413294: 2
4c5817: 2
60bcd5: 2
4cb4a7: 2
609754: 2
60bc4a: 2
48d827: 2
48d805: 2
60c2f8: 2
48e352: 2
609cf6: 2
4d61ff: 3
459fe1: 3
45a107: 3
5f1da7: 3
5dcc86: 3
457dc6: 3
459f17: 3
609b7b: 3
47c976: 3
497ac8: 3
4d160e: 3
60bbf8: 3
60c44d: 3
5d873b: 3
457f75: 3
47b145: 3
458bd2: 3
5d894c: 3
609891: 3
4576fd: 3
4e0f0d: 3
60b637: 3
46e500: 3
45ddc3: 3
47dd84: 3
45fa3e: 3
60bb90: 3
6099a6: 3
4dfb17: 3
46d8ab: 3
60c7b5: 3
45b342: 3
4dde99: 3
497edb: 3
4764ec: 3
46c377: 3
5f7c20: 3
4983f7: 3
5f0b2c: 3
60beb5: 3
4da955: 3
5dda8d: 3
4111aa: 3
462a7e: 3
48baac: 3
45fd31: 3
45b1fb: 3
45d955: 3
60c4c8: 3
60b349: 3
457d8b: 3
458a66: 3
41a3a6: 3
478693: 3
4d92fc: 3
4a48fc: 3
4d7dd8: 3
60c04a: 3
60c3ca: 3
4a48f1: 3
4a48f9: 3
400480: 3
4dfb8e: 3
47b168: 3
457e16: 3
60b237: 3
4782bc: 3
45b652: 3
497cb0: 3
4cfb02: 3
60af9f: 3
457e20: 3
46e51c: 3
46c7b0: 3
458413: 3
4b236e: 3
457223: 3
4d92f9: 3
479930: 3
4de2eb: 3
60b627: 3
4deca9: 3
41c66c: 3
4b9b7b: 3
426e0b: 3
60bcd0: 3
609dbc: 3
459f0d: 3
609a03: 3
4d603a: 3
523a49: 3
47dd96: 3
45a6ff: 3
633507: 3
609bf6: 3
464eeb: 3
4dd324: 3
4111a7: 3
498466: 3
4a8636: 3
4ccdb4: 3
48d2cd: 3
4cd29f: 3
60bb10: 3
4d8144: 3
4d6fc5: 3
477df6: 3
5f0b52: 3
47b1ab: 3
41c68e: 3
41bb9b: 3
46d89c: 3
45de66: 3
46023b: 3
47b24f: 3
40288c: 3
4582e3: 3
4d603e: 3
46d81f: 3
478f5f: 3
47debd: 3
47dec7: 3
5f1e6d: 3
4112de: 3
60b8d7: 3
462d5e: 3
4d0965: 3
4ac98c: 3
60c499: 3
60b537: 3
60bf38: 3
497cbd: 3
50fb3d: 3
4d809b: 3
4ccdcb: 3
60c640: 3
476581: 3
475f57: 3
41b961: 3
478b1f: 3
60badd: 3
5d8848: 3
60c708: 3
4be484: 3
60a4ea: 3
60a7c3: 3
4d6efe: 3
4d9200: 3
476584: 3
4d927c: 3
4d63f3: 3
41c692: 3
5d882c: 3
469e49: 3
5dda90: 3
462ccc: 3
4d9267: 3
5dcc7f: 3
5d8945: 3
60c412: 3
4bf71b: 3
47a7ab: 3
609e4c: 3
408de5: 3
6073c3: 3
60c6d0: 3
47b16f: 3
45b345: 3
5ce427: 3
4d1117: 3
60c68d: 3
413bec: 3
5ef161: 3
60c938: 3
4d8100: 3
498ca6: 3
4d8165: 3
50fe6c: 3
4573bd: 3
4111ae: 3
478f91: 3
5de5e6: 3
4d3182: 3
60a5b9: 3
60c3c2: 4
60aa5f: 4
60bdb8: 4
4184f4: 4
4c4911: 4
45da73: 4
4c7b06: 4
60c1fa: 4
60b4e3: 4
60c378: 4
60c508: 4
45b592: 4
45dbb2: 4
60a4ee: 4
4d923c: 4
60b8cf: 4
469682: 4
60a79a: 4
45f2c9: 4
462e6e: 4
60b0e7: 4
426e2d: 4
5ee88f: 4
60c118: 4
60c538: 4
460785: 4
477d6f: 4
60c840: 4
41afd6: 4
45fe18: 4
45dd4c: 4
5f155a: 4
5ef1c5: 4
45dbc1: 4
4d91c9: 4
47c2cd: 4
413457: 4
45f305: 4
4782bf: 4
60b3e7: 4
60bec5: 4
6099d0: 4
478f37: 4
60a7b7: 4
45b3de: 4
60a907: 4
475f6c: 4
469951: 4
4d664e: 4
4bdcd6: 4
421028: 4
60c230: 4
4c3eb1: 4
60ba77: 4
4ce35e: 4
60aa67: 4
48d0a8: 4
60bcdd: 4
475f34: 4
458bdd: 4
609910: 4
4d5f4e: 4
4d9213: 4
4131f9: 4
60bba0: 4
498a7d: 4
60ba23: 4
46c9f6: 4
402081: 4
475f49: 4
47da31: 4
45f3d6: 4
476151: 5
60bb58: 5
4191fa: 5
60b8d3: 5
60c6c0: 5
60a4f2: 5
4cc6e7: 5
609d11: 5
418f91: 5
4bb802: 5
47c9a1: 5
4cf59b: 5
60ae2a: 5
47c9a8: 5
60bce5: 5
4be8e2: 5
60c040: 5
46c3cd: 5
4214e0: 5
45843d: 5
45b5ff: 5
4da95f: 5
60b783: 5
60c178: 5
60b387: 5
60c405: 5
47b9d4: 5
60c440: 5
608d7c: 5
4785d9: 5
4c2381: 5
60c1e0: 5
478f16: 5
60b62f: 5
412b66: 5
4d8b63: 5
60acda: 5
45c293: 5
60bb1d: 5
4d37d7: 5
609715: 5
60a8ea: 5
41a4ca: 5
4cc867: 5
4d8136: 5
41bba5: 6
450055: 6
4adbe5: 6
418942: 6
457364: 6
459d63: 6
4bdd2f: 6
4cbcdb: 6
4be628: 6
4d5d51: 6
5f3095: 6
47a944: 6
46350b: 6
4d74f1: 6
609b16: 6
609cb0: 6
60bd80: 6
418ebb: 6
60c242: 6
45005d: 6
46725a: 6
60c60a: 6
41bba2: 6
457ec1: 6
4674ac: 6
4786bf: 6
60abb3: 6
5ee8d8: 6
60c270: 6
4600e0: 6
5f0b79: 6
4ca30a: 6
609a00: 6
60c27d: 6
4572f4: 6
60c8c0: 6
609c11: 6
41af6f: 6
60c800: 6
41af5d: 6
4015b9: 6
60c600: 6
45b72e: 6
47a948: 6
50feac: 6
4daf4b: 6
45b738: 6
609ff1: 6
4daefe: 6
60b4e7: 6
457fea: 6
609c2c: 6
45939c: 6
408ae3: 6
450117: 6
4a86bb: 6
60c4c0: 6
478703: 6
47869f: 6
478707: 6
421a86: 6
4cbc9d: 6
479925: 6
60c1b0: 6
4df708: 6
4786fc: 6
421a9b: 6
4d922a: 6
4786ef: 6
60a350: 6
45352b: 6
4d1c06: 6
44feb7: 6
60b927: 6
5f0951: 6
46d220: 6
47d0bb: 6
4df8df: 6
4dd444: 6
478a23: 6
60bc10: 6
609f6c: 6
60ab8a: 6
4be5a3: 6
609744: 6
4184c7: 6
621010: 6
46d862: 6
4d74e5: 7
5f07dc: 7
60a329: 7
5f1daf: 7
418511: 7
4a83fb: 7
60aea7: 7
60c2b5: 7
5ef157: 7
4b8e50: 7
60c400: 7
477ed0: 7
4996df: 7
5f0b5c: 7
609b2c: 7
60c480: 7
42798a: 7
60a4f6: 7
479572: 7
60a2a4: 7
46d676: 7
4d0639: 7
4766b1: 7
4bdf15: 7
60ba1f: 7
60c320: 7
60ae09: 7
47aa4d: 7
476040: 7
4c7ee3: 7
60c0d0: 7
4bbd77: 7
60c680: 7
609823: 7
50fae9: 7
60c2f0: 7
4d8b9c: 7
4c3eb5: 7
4d6358: 7
4da962: 8
476ed8: 8
60ae47: 8
5f1db9: 8
609da1: 8
49ca91: 8
60b393: 8
464b74: 8
467171: 8
60afa7: 8
45b23a: 8
6098e0: 8
60a125: 8
60bdb0: 8
4cab37: 8
4be3d3: 8
4bdce5: 8
60a51d: 8
457e4f: 8
608c41: 8
60c390: 8
5f0b37: 8
4be9d5: 8
4cc4c0: 8
609bac: 8
6098b3: 8
60bd10: 8
464918: 8
47c9ac: 9
46d824: 9
609c91: 9
6099a2: 9
46d859: 9
5f0900: 9
47b9e0: 9
5ef145: 9
47b6bb: 9
498c0f: 9
498bea: 9
609e31: 9
47c9b5: 9
4646b2: 9
4cd2a7: 9
50954b: 9
4cb630: 9
5f0728: 9
4b0b85: 9
476db0: 9
60c140: 9
46d03c: 9
60c780: 9
60a7bf: 9
465884: 9
479919: 9
5f0b16: 9
45da4b: 9
609a91: 9
457520: 9
462c4e: 9
4674e8: 9
60bf30: 9
47b596: 9
462b4f: 9
5ef14d: 9
46cfbe: 10
608e21: 10
4ccd1d: 10
45ab9f: 10
5f06bf: 10
4d76bd: 10
45b33e: 10
608e75: 10
608be9: 10
608dcf: 10
60a310: 10
60c3b0: 10
463ac4: 10
60ae4f: 10
6097f0: 10
60a10e: 10
476037: 10
60be2a: 10
5f0b30: 10
4c5173: 10
60beb0: 10
60ada7: 10
47c820: 10
421b11: 10
608ee1: 10
4a859f: 10
4673b4: 10
60be10: 10
47c9f8: 11
6097c1: 11
60a2ff: 11
4d920a: 11
60ad9f: 11
606920: 11
5f07fa: 11
4d9279: 11
4d922e: 11
42805d: 11
50faeb: 11
4d8b91: 11
41b1e2: 11
408e84: 11
4cd600: 11
477dc5: 11
4d91f2: 11
4b9c85: 11
48d63b: 11
60c900: 11
478b25: 11
4582f5: 11
5f3080: 11
4c4c22: 11
60c760: 11
50fe7a: 11
4d8a56: 12
609edc: 12
4deb7b: 12
4c57b3: 12
60a5dc: 12
420d35: 12
49efe5: 12
478fc0: 12
609d2c: 12
4d7eec: 12
4c467f: 12
4d1c7f: 12
60c2b0: 12
4ac9be: 12
4d919c: 12
47669d: 12
47ca8c: 12
60bf60: 12
4df1f0: 12
4cd4e8: 12
462dd0: 12
478b22: 12
4d1075: 12
46ce42: 12
46d1fe: 12
45b2d6: 12
411313: 12
45aff2: 12
464435: 13
4184ee: 13
4674ce: 13
4196c3: 13
4cd608: 13
46b0c7: 13
4b98fb: 13
46451d: 13
60a224: 13
46c48f: 13
4d6238: 13
4be722: 13
427930: 13
418b1d: 13
458227: 13
47aa50: 14
46f291: 14
47aa54: 14
46f515: 14
4be6fd: 14
46f78d: 14
46fa93: 14
46f544: 14
609913: 14
4700f5: 14
4644ea: 14
47b4d9: 14
45a17c: 14
46f1e3: 14
406f96: 14
46f541: 14
47b229: 14
46f1fe: 14
50fb63: 14
412b63: 14
4c46a6: 14
609b96: 14
5f2dca: 14
41d36f: 14
46f4fe: 14
49ca9f: 14
427f46: 14
46f53a: 14
4dcd92: 14
45d919: 14
464910: 15
60a54e: 15
60a576: 15
60c930: 15
5ee9a3: 15
4d0bdc: 15
5f0743: 15
60c700: 15
60ada3: 15
5df41c: 15
4c5800: 15
4268e0: 15
46444c: 15
45b1fe: 15
4d7ef4: 15
60a530: 15
609751: 15
4593c4: 15
427f62: 15
4d7efd: 15
60c350: 15
4c266d: 15
46c471: 15
60b787: 15
45d958: 15
609aaf: 15
5ef0f1: 15
60ae53: 15
498a4a: 15
60a321: 15
4a702d: 15
60a348: 15
46f202: 16
49ec45: 16
467bb7: 16
4782fc: 16
408d41: 16
46f254: 16
47b180: 16
4b001a: 16
4582dc: 16
41d369: 16
60c370: 16
47b4e4: 16
41d361: 16
41d35b: 16
46f257: 16
46f24f: 16
60ad9b: 16
4432cd: 17
4bafe5: 17
47853c: 17
49f448: 17
4a7029: 17
4b2fbf: 17
608d0a: 17
45b202: 17
4a7a66: 17
47c565: 17
498a64: 17
4d9779: 17
6097e3: 17
4b6171: 17
4be3c9: 17
4d9768: 17
469910: 17
608c8c: 17
60a3c4: 17
49ef05: 17
4c6ba7: 17
46f2c0: 17
408d36: 17
4ac9d6: 17
4be3e8: 17
4be3ce: 17
4d8e35: 17
46d160: 17
47c9e9: 18
4d8e3e: 18
60bb50: 18
60aba7: 18
4a84f0: 18
4a2bd6: 18
479929: 18
4781c6: 18
45ddb2: 18
4d04ec: 18
4780a5: 18
4ddbb6: 18
4bc251: 18
4cc571: 18
45919d: 18
45c2df: 18
4d7d30: 18
458e50: 18
608cb8: 18
60ad57: 18
60a541: 18
4d09c7: 19
4a847b: 19
47c814: 19
5ef429: 19
4baf72: 19
4210b3: 19
60aa3a: 19
4c7847: 19
609922: 19
47b3d1: 19
4a84a8: 19
4d814d: 19
60c500: 19
5f172c: 19
408a7f: 19
4d140f: 19
5f2db5: 19
60ae57: 19
498caf: 19
476dc5: 19
60a00c: 20
5ef02c: 20
421b15: 20
4d8b6c: 20
4a785b: 20
4a523a: 20
4671ce: 20
4baf4b: 20
4a84fc: 20
4b8fd3: 20
458c55: 20
47c9e6: 20
476df0: 20
4ce2a6: 20
478071: 20
609820: 20
50fb6f: 20
4015a7: 20
47397e: 20
498a8a: 20
443845: 20
60a56a: 20
4739ff: 20
4d0c08: 20
463024: 20
476ec0: 20
47aa3d: 21
48a9de: 21
45b17c: 21
47d232: 21
484296: 21
477fb3: 21
459d2f: 21
4da9a7: 21
45b02a: 21
45b175: 21
4573b2: 21
47aa47: 21
460e87: 21
45b416: 21
608b93: 21
476980: 21
45db6e: 21
48ab50: 21
484431: 21
4996d8: 21
60c580: 21
45da7e: 21
4d5d36: 22
4c4e70: 22
460e73: 22
60a354: 22
4017aa: 22
476fe9: 22
47671e: 22
4610a1: 22
46c422: 22
4cb1c6: 22
4cc5ca: 22
4782ff: 22
40159a: 22
498a76: 23
458c26: 23
4da99a: 23
44381d: 23
47d29d: 23
60c110: 23
4ba7f8: 23
60bbf0: 23
60c530: 23
473ac3: 23
5ef11a: 24
6098a2: 24
45b392: 24
401ff7: 24
476842: 24
60bfb0: 24
457f0f: 24
4d8b79: 24
4d63ce: 24
4d1407: 24
5f171d: 24
4d095e: 24
402890: 24
60a32d: 24
473a03: 25
45de8d: 25
4644f3: 25
46d855: 25
608b90: 25
467383: 25
5f3055: 25
4989d9: 25
458d3d: 25
5f0786: 26
5f0aa7: 26
4a844a: 26
60bbc0: 26
427934: 26
6097d6: 26
4cc548: 26
46737b: 26
46c855: 27
47b6bf: 27
4c9e6e: 27
60a0ac: 27
60a56e: 27
4cd163: 27
407423: 27
60a546: 27
4d2e1d: 27
47b635: 27
401879: 28
4c43fd: 28
60b243: 28
5f07a8: 28
478d65: 28
4700f0: 28
60c190: 28
47698d: 29
46b0ab: 29
4675e3: 29
46c8b9: 29
40187f: 29
402872: 29
479ae1: 29
4a8530: 29
5f0b10: 30
4b9c6e: 30
460177: 30
49d1eb: 30
49ae9b: 30
4e0b20: 30
4c5119: 30
4673ff: 30
46750e: 30
45b2ef: 30
4675a5: 30
4cbca3: 31
4e05df: 31
4d8f00: 31
4d8f94: 31
5ef197: 31
46f2c9: 31
45a702: 31
478465: 32
606840: 32
606843: 32
46f216: 32
477fa0: 32
4989dd: 32
4be5ac: 32
41915e: 32
44592c: 32
4136ca: 32
608ff0: 32
46f289: 32
459c67: 32
50feba: 32
4d321b: 33
473c7a: 33
4a3081: 33
459386: 33
467456: 33
60a232: 33
47684e: 33
41364e: 33
4bbd22: 33
4c4971: 33
4cd14d: 33
5eefdb: 34
4b93ec: 34
46d35b: 34
4b4765: 34
60a20b: 34
4a86d3: 34
47b244: 34
5f0b91: 34
4136eb: 35
46c8b0: 35
4b0518: 35
4d74da: 35
47b8fd: 35
4d646f: 35
47c842: 35
414a20: 36
4a8559: 36
4ca986: 36
46d6c4: 36
60c7a0: 36
4434ec: 36
5f1d3d: 36
5f0c66: 36
4a23f3: 37
476eed: 37
4bb039: 37
4a7819: 37
4673fb: 37
418be9: 37
40a592: 37
4a7816: 37
609ec1: 37
414983: 37
50fd3d: 37
479c21: 38
50fbaa: 38
413254: 38
60bf90: 38
41a3d1: 38
47d2a8: 39
445870: 39
4673b0: 39
4c5850: 39
46d817: 39
4d8148: 39
428aa6: 39
41133a: 39
4d74e8: 39
467422: 39
47aaac: 39
473bfc: 39
5ee99d: 39
45b1af: 39
4bc23c: 39
457d28: 39
46d810: 39
473c00: 40
4184a4: 40
60a572: 40
4be9bc: 40
473b36: 40
46d35e: 40
4d8fa1: 40
60c170: 41
5f306c: 41
60bc30: 41
47d148: 41
6097d2: 41
4a849f: 41
4434cc: 41
60a54a: 41
5f0b06: 41
476e43: 42
47b8ba: 42
460076: 42
459c5d: 42
4bd344: 42
443772: 43
46d899: 43
609726: 43
4d3815: 43
45aa9e: 43
47c7f2: 44
60a1f0: 44
4d646b: 44
401710: 44
4cb1b7: 44
45ddc0: 44
49ef94: 44
60a27e: 44
4bc148: 44
476fbb: 44
476f30: 45
46fe99: 45
45982d: 45
47b190: 45
401f44: 45
4785ad: 45
608eab: 46
608df7: 46
4d2dd9: 46
608e4b: 46
608d34: 46
608f17: 46
5f0b1b: 46
609a24: 46
608ce0: 46
445d9d: 47
411756: 47
5fa258: 47
5ee8ef: 47
402011: 48
5ee8e5: 48
459eb5: 48
60bdf0: 48
476854: 48
473b31: 48
49ce8a: 48
41193a: 48
407c13: 48
401883: 48
477d72: 49
419b3b: 50
5ee993: 50
5f783a: 50
5f06b0: 50
41a3ef: 50
5ef0df: 50
4d8ed5: 51
41b044: 51
608c11: 51
417e31: 51
473ad1: 52
4184e0: 52
5ee98b: 52
47c578: 53
5f309e: 53
41afcb: 53
46ee8f: 54
5f30e2: 55
4cd425: 56
418493: 56
41900e: 56
47bd5c: 56
4be8e6: 56
5f069e: 57
476c75: 57
44581e: 57
408d39: 57
4cf75e: 57
4079a4: 58
4c5c33: 58
41a3fc: 58
4c25f9: 58
469f13: 58
4210c0: 58
608ccb: 59
608e36: 59
608d1f: 59
45a679: 59
608de2: 59
608efc: 59
45b5e2: 59
46714f: 59
608e90: 59
608c56: 59
457136: 60
6068bd: 60
4117cb: 60
60c980: 60
5f07c0: 60
46d7cc: 61
465879: 61
46d893: 62
47dd5f: 62
478ae0: 62
473832: 62
4bedb9: 62
47b391: 62
4d6202: 62
4646d8: 63
4dce34: 63
49ecf2: 63
5ef1a9: 63
464edc: 63
4c4ed9: 63
463ac7: 63
402049: 63
417fb4: 64
46441c: 64
608bfc: 64
609ea6: 64
5f071f: 64
6068dc: 65
419ad0: 65
459c6b: 65
47d2a4: 65
4570bf: 65
4d8b4e: 66
45b73c: 66
60a261: 66
4bd977: 66
4d6450: 67
4457d4: 67
4c2377: 67
4dd404: 67
45c329: 68
477f4d: 68
45c21b: 69
4d5ffc: 69
5f1d82: 69
5ef1df: 70
45b809: 71
41bc99: 71
60c960: 72
463b65: 72
4a8709: 72
464419: 72
402015: 72
5ef020: 73
47d38b: 74
4bee24: 74
4658ef: 74
609740: 76
46cc0e: 76
420809: 76
4cd505: 76
4d76d2: 76
47666a: 76
476dd8: 77
465809: 77
45aba2: 77
45acc4: 77
418c00: 77
45aaa9: 77
46c405: 78
4d6003: 78
5f0730: 78
45818d: 78
4457fc: 78
45a67c: 78
476db3: 79
4cf714: 79
60c560: 79
46598a: 79
47650e: 79
418931: 80
608ec6: 80
608f32: 80
608e60: 80
608cf5: 80
608e0c: 80
608d49: 80
608c26: 80
4d5fff: 81
464e97: 81
478632: 82
4643f1: 82
479c25: 82
476e4a: 83
6068b9: 83
4989c8: 83
4ba508: 85
4739b7: 85
4d8d08: 85
4d76c7: 85
4d8a5a: 86
5f07c4: 86
47660b: 86
408a73: 87
60bdd0: 87
4b1917: 87
609991: 87
41bb21: 87
6068e3: 88
4cf76f: 88
469c14: 88
408a76: 88
46d8a0: 89
4c5908: 89
4765d9: 89
408a69: 89
476ec4: 90
4a8457: 90
45c2fc: 90
606826: 90
4766c9: 91
476941: 91
4781bb: 93
46715f: 94
4bf6d0: 94
49ce86: 95
60b247: 95
4cbcdf: 95
4d5f18: 96
45b8c8: 96
5f04be: 96
60693b: 97
457145: 97
479e3b: 97
47a6ca: 97
4d8f27: 98
4996a2: 99
4120c5: 99
4d90f1: 99
5f2d46: 99
60bfd0: 99
40205c: 101
47a598: 101
5ef001: 102
4996cf: 104
478e95: 104
462dac: 104
49caa5: 105
477f4a: 105
4c5006: 105
4cf847: 105
47b9d7: 106
41afde: 106
4cd4ec: 107
4b8f11: 107
4c784b: 108
476dbe: 108
60a28c: 109
4c5b80: 109
45b1b2: 109
49ca95: 110
479b24: 110
4bbd1e: 111
4b9b62: 111
445a27: 111
408aec: 112
478063: 113
408d23: 114
4afeb1: 114
47b252: 114
4ba381: 114
47b9c0: 115
41b003: 115
4d073e: 115
4766ec: 115
45821a: 116
4581e6: 116
47c90c: 116
445787: 117
478b10: 117
4b04fa: 118
45aff5: 119
476dc9: 120
4ccb06: 121
4bf7ce: 121
47670e: 122
4d8a63: 122
4792a9: 122
5f0c31: 124
5efad5: 124
46fecc: 125
45710f: 125
50fcb4: 127
50fde8: 128
45fef7: 128
4d318f: 129
47db20: 129
47682e: 129
4bb2d5: 130
4c5821: 130
46730b: 130
41ada8: 130
47c938: 131
4a253a: 132
5f0af9: 134
4bb7f6: 134
4cc5f5: 136
4bede2: 138
5f25d4: 139
60c9a0: 141
4d0680: 141
411752: 142
45aaad: 142
5f048e: 143
4c7a7b: 145
4ccb0a: 145
5ef076: 147
4208bf: 147
5f1d5f: 147
5f1ead: 148
5ef19f: 148
60c5a0: 151
5f30a2: 151
419339: 151
4d073b: 152
47cbdd: 152
4596cf: 152
60900a: 152
46c444: 153
4761f9: 153
4c2348: 153
479557: 153
41a363: 155
4434b7: 155
4d9000: 156
478199: 156
60bfe0: 157
45b379: 157
4bd2e5: 159
479b30: 160
408ac3: 160
44591c: 161
476a8e: 161
5f0a80: 161
47d1df: 162
49caa2: 163
45fe94: 164
463950: 164
47aa0f: 167
4bd2d0: 168
4d63db: 169
41b157: 172
4003f0: 172
4cd17a: 173
4cd958: 175
4c585c: 176
4c59b4: 180
41961c: 180
421a7d: 181
4644f7: 182
443656: 183
41b153: 184
5f2d24: 185
47b217: 186
47620c: 187
4ccaf5: 187
44366d: 187
428a69: 187
45fed0: 188
476ab9: 191
4bab55: 191
5f25c0: 193
47b3d5: 194
46c859: 195
476845: 196
4d57ca: 197
476abd: 197
4d8aa5: 197
4d6349: 198
4c6bb5: 201
4d63e7: 201
476002: 201
420904: 205
4bb7f9: 205
4783d4: 205
4781ca: 206
4cc700: 207
44364f: 207
60c1c0: 209
47a96d: 210
47c90f: 211
418b55: 214
443653: 215
45b2f2: 216
4003a0: 217
4d8eab: 217
4ba4e0: 218
476d20: 220
47aa12: 221
46440f: 222
4ba4f9: 223
5f25e9: 223
5f2c20: 223
4b944b: 223
445d67: 224
4cf6ce: 224
445d55: 226
608ffc: 226
4c4cbe: 226
4c5841: 227
4bb03d: 228
47dd28: 229
479bdd: 230
4cf707: 230
50faa2: 231
401ffa: 232
4761a9: 236
50fc30: 238
443760: 239
45afa2: 240
4d5751: 243
428f5a: 244
4c5c89: 244
50b025: 245
5f06ab: 246
47d555: 247
4c3701: 249
40a81d: 249
47dc0c: 254
4195c1: 254
476129: 254
60c3a0: 254
4761ac: 259
47c9e0: 260
45fefb: 260
4c39e0: 260
412243: 260
4195cd: 261
445935: 262
4c2563: 263
477fbf: 263
46c4f5: 264
60a240: 266
4dae84: 267
4d37d4: 267
4cb634: 270
4d3189: 271
4bb03f: 272
4208fc: 273
5f0c7a: 273
478015: 274
4d8b68: 274
6068b2: 275
47cba1: 276
41bbd3: 280
5ee966: 281
4c36fa: 284
45720b: 286
4beddd: 288
44376a: 290
4bac47: 294
44588b: 295
457141: 298
412246: 301
41193e: 303
47b8bd: 303
47da1c: 303
608ba4: 304
4118cb: 305
609018: 310
4d3131: 311
5f0668: 315
4c3705: 317
445915: 324
4bac41: 324
4994bd: 324
4bc615: 325
4c4cc2: 325
4a86ab: 326
476719: 331
47d2de: 334
47a9ff: 335
445929: 338
445911: 340
467136: 344
4d8ed9: 349
478b14: 351
46d0f2: 357
458191: 359
47c499: 360
476984: 362
47642b: 366
4c580f: 367
47ab60: 367
5f0abf: 370
47aabf: 374
47b541: 375
4cc5ec: 377
4208f0: 382
47aa15: 384
4c64b6: 388
5f25a9: 391
41b02a: 393
4195f4: 395
47d1aa: 402
4208c2: 403
4d3044: 404
478165: 404
4cd433: 405
445d5e: 405
4cd05b: 405
46c778: 407
4698c3: 411
41ae81: 414
46713a: 416
5ef0fd: 421
4d5f47: 427
46d05f: 428
4d76ca: 428
5f2621: 431
4bacb7: 434
4d8ee2: 437
47b8e0: 450
476f34: 454
46712d: 459
4700d2: 463
476e4d: 467
475f40: 471
4996b4: 472
5f0c4b: 476
50fcf1: 478
4d8f2b: 488
4cc704: 489
4c2362: 492
46cb49: 493
478f3a: 494
4d0837: 496
418a50: 497
4cc872: 500
4bb317: 509
476fe5: 519
4cb3ec: 524
4c581c: 528
479c56: 532
4cc9b5: 542
4baba6: 544
5f0c1c: 549
463b93: 551
50fbd6: 555
479ba6: 556
60be00: 560
476629: 563
5f0523: 568
47de2b: 569
4cc5d1: 572
50fa96: 576
463c74: 577
4cf564: 578
5ef18b: 587
4cfa06: 593
47d20e: 599
47aa04: 601
476271: 601
4d080b: 607
47a217: 615
479aff: 615
47c9ed: 615
458194: 616
5ee975: 619
476e11: 633
50fc10: 645
419040: 653
478aa0: 683
4bbd11: 692
46c2b2: 700
4da99e: 702
45b58f: 704
41a53c: 720
50fc05: 724
608b7d: 724
476df7: 729
477f07: 731
47b8a0: 737
47b57f: 739
477ff2: 742
417f48: 744
4c5c2d: 747
5f1d8d: 752
4600e3: 754
45738e: 765
4c38f4: 770
4798e2: 776
47d3cb: 780
4d5f21: 807
419ac4: 830
419ac0: 854
476147: 856
47b3e8: 858
478cc9: 861
4d8a67: 867
47a963: 868
418b44: 872
5f0535: 880
47cba9: 882
476008: 896
60a1d3: 897
4d0742: 901
4c5911: 915
5114d7: 924
41a453: 924
475fd0: 925
4dad84: 952
50fa8b: 961
4c5b85: 966
4b9572: 968
4d56f4: 971
4d075a: 983
479b27: 985
4d6457: 994
476221: 996
475fcc: 1033
42100a: 1046
49c93b: 1085
47dd59: 1090
50fcc1: 1098
479a9c: 1104
476ff0: 1136
47b8a4: 1139
475fc2: 1142
421020: 1149
47d25c: 1150
5ee962: 1159
4dcaf9: 1170
470059: 1177
41a470: 1220
41b15b: 1223
417f3c: 1223
47dd63: 1224
4b8e8a: 1240
4d63d5: 1271
5eefef: 1281
476133: 1293
47601c: 1303
41b037: 1343
46ff08: 1362
477058: 1367
479af5: 1382
418b00: 1383
47cd3f: 1409
4b8eb0: 1411
50fcc4: 1435
477003: 1477
4764bf: 1478
4cc639: 1490
428f94: 1593
5f04b7: 1620
5f0544: 1664
418bc4: 1706
50fa9a: 1780
476113: 1809
418b21: 1831
4195f0: 1832
476123: 1837
47612d: 1845
47cd5a: 1868
475ef3: 1902
4195dc: 1914
4ce30b: 1938
418d4a: 1957
418bc0: 1988
47d275: 2030
5f2c39: 2034
479b03: 2051
4d9100: 2060
4d5f4a: 2086
418b3e: 2186
5ee9c8: 2202
47616a: 2206
4bab02: 2253
479c0b: 2261
4c3a32: 2276
47623f: 2315
4baacf: 2318
5f053a: 2570
4b8b99: 2590
4d5793: 2608
41a559: 2623
4d7924: 2686
476080: 2709
475f06: 2840
47a692: 2895
4dcb84: 2909
47d272: 2981
47cd43: 2997
41d350: 3036
47d2e1: 3074
477038: 3382
47d251: 3387
47d24d: 3484
4d63df: 3517
4dca40: 3684
46ff9c: 3888
4cf81b: 4500
47a696: 5055
475f82: 5837
418ae2: 6045
418b06: 6977
417f2a: 7054
428f70: 7384
417f3f: 7505
418b30: 8481
46ff30: 22419
4cc330: 128162
L1I TOTAL     ACCESS:   34976957  HIT:   34102605  MISS:     874352  HIT %:    97.5002  MISS %:    2.49979   MPKI: 4.37176
L1I Test counter:          0
L1I LOAD      ACCESS:   34976957  HIT:   34102605  MISS:    1093334  HIT %:    97.5002  MISS %:    2.49979   MPKI: 4.37176
L1I PREFETCH  REQUESTED:          0  ISSUED:          0  USEFUL:          0  USELESS:          0
L1I USEFUL LOAD PREFETCHES:          0 PREFETCH ISSUED TO LOWER LEVEL:          0  ACCURACY: -nan
L1I TIMELY PREFETCHES:          0 LATE PREFETCHES: 0 DROPPED PREFETCHES: 0
L1I COMMIT LATE PREFETCHES: 0 MISSED OPPORTUNITY: 0 LATE IN PQ: 0 UNCOVERED: 0
L1I COMMIT LATE MSHR PREFETCHES: 0
L1I MPKI TOTAL: 5.46667 MSHR LATE: 0 PQ LATE: 0 COMMIT LATE: 0 MISSED OPPORTUNITY: 0 UNCOVERED: 0
L1I PREFETCHES SAME FILL-ORIGIN LEVEL: 0 DIFFERENT FILL-ORIGIN LEVEL: 0
L1I AVERAGE MISS LATENCY: 17.1658 cycles
L1I AVERAGE MISS LATENCY LOAD: 17.1658 cycles
L1I AVERAGE MISS LATENCY PREFETCH: -nan cycles
L1I AVERAGE MSHR OCCUPANCY: 0.032908
L1I MSHR FULL: 0
L1I RQ	ACCESS:   56048455	FORWARD:          0	MERGED:   20852515	TO_CACHE:   35195940

4d7401: 1
4188da: 1
4dc4a1: 1
47aeba: 1
422eb5: 1
50fd80: 1
4180c4: 1
48cae1: 1
476933: 1
462a2a: 1
4d8612: 1
4d7080: 1
45e4df: 1
42134f: 1
4d8864: 1
421290: 1
4be9d0: 1
4dc52d: 1
475f90: 1
47c1dc: 1
45e3a4: 1
4d7a80: 1
4d70c4: 1
45e103: 1
4d7124: 1
490eda: 1
490e90: 1
4629d0: 1
5fa540: 1
60bff0: 1
60c7b0: 1
422a40: 1
45e442: 1
45e401: 1
45e316: 1
45e1cf: 1
4d7e0a: 1
45e1a3: 1
4d62c1: 1
418099: 1
45e0c4: 1
45e08d: 1
45e041: 1
45e016: 1
418497: 1
47d3fb: 1
50b1a4: 1
50ff50: 1
4c7930: 1
476880: 1
47da40: 1
4d73c0: 1
418782: 1
4212c0: 1
50b080: 1
5f1f70: 1
47b11d: 1
4c7946: 1
5facd0: 1
4ce485: 1
470542: 1
609bdb: 1
422d6d: 1
4ba798: 1
418775: 1
477104: 1
4ddeef: 1
421302: 1
422a10: 1
45dfc0: 1
4ba701: 1
470501: 1
476740: 1
4d71c0: 1
422be4: 1
4dde81: 1
4dc1c0: 1
45e3da: 1
421380: 1
4d1642: 1
47b0dd: 1
5f2074: 1
4ccec4: 1
4c5281: 1
4d7140: 1
5f1f80: 1
420f40: 1
609fc0: 1
609fbb: 1
47aa8d: 1
50ff80: 1
5f2082: 1
4c799f: 1
5fa484: 1
47ab59: 1
470700: 1
5fa4c0: 1
4d85eb: 1
4707c8: 1
4d8541: 1
4d8530: 1
47085e: 1
470881: 1
4708c7: 1
47119d: 1
4d7060: 1
4cd025: 1
47aec4: 1
418140: 1
4ce420: 1
4ce440: 1
45e607: 1
45e5cf: 1
4ce4eb: 1
418040: 1
4181c1: 1
420f82: 1
60975f: 1
4d8893: 1
4d7380: 1
4d8825: 1
4d7451: 1
4d7480: 1
4d858c: 1
4d87f5: 1
4591d2: 1
4181bb: 1
4dc430: 1
490f00: 1
459227: 1
4cd5c1: 1
41a663: 1
4d10f7: 1
470444: 1
4704e6: 1
470580: 1
4d8689: 1
4706ec: 1
4d864a: 1
4bdf44: 1
45e481: 1
4d8a42: 1
4d9181: 1
50fb80: 1
45a9eb: 1
4c51e4: 1
420fc5: 1
4c52c0: 1
4ba4b9: 1
4d7d40: 1
4bdf80: 1
4dc440: 1
470420: 1
45e6eb: 1
45e640: 1
45e50f: 1
45e543: 1
4bdfc3: 1
4c5228: 1
422ece: 1
50b0c2: 1
45e211: 1
422a83: 1
5fa550: 1
45e251: 1
422ac3: 1
49108c: 1
4910c0: 1
45e284: 1
45e2d9: 1
4c5240: 1
4bf840: 2
4c6532: 2
418381: 2
419909: 2
48ddc0: 2
418571: 2
48d996: 2
4131eb: 2
41801b: 2
460108: 2
48de42: 2
4bea10: 2
479b7f: 2
4be770: 2
48d8c3: 2
45a880: 2
5fa520: 2
419a1e: 2
4ce2f0: 2
41b992: 2
4c2443: 2
498482: 2
48d7c6: 2
48c100: 2
60aa03: 2
4bba2c: 2
4c55b6: 2
48e407: 2
4199c4: 2
4beada: 2
418304: 2
4c7240: 2
418340: 2
48d785: 2
48e380: 2
4cc346: 2
45b483: 2
45b459: 2
4be785: 2
48e305: 2
4be8e2: 2
48db82: 2
48d901: 2
48d881: 2
48d843: 2
48d802: 2
48d9c0: 2
4bea80: 2
4c6541: 2
4d5781: 2
4beb42: 2
41b643: 2
4beb30: 2
476783: 2
419a41: 2
48e344: 2
4c1cfe: 2
45b420: 2
4c119e: 2
48e2f0: 2
4c7237: 2
4182b0: 2
4bf882: 2
418580: 2
4187e5: 2
5ef815: 2
48db4e: 2
4bf740: 2
60ab4b: 2
4c8a02: 2
48de00: 2
4bb944: 2
4c89fd: 2
4cca2b: 2
48dd82: 2
5df781: 3
5f7881: 3
4de890: 3
497cc5: 3
5def72: 3
4e0a33: 3
632e40: 3
4df3c0: 3
5df765: 3
633230: 3
6331c3: 3
5de7c2: 3
5ddf81: 3
41494c: 3
47bfcd: 3
4df900: 3
4de901: 3
4df383: 3
5f7c03: 3
5de440: 3
4df913: 3
5de483: 3
5f7c42: 3
5de542: 3
5f9410: 3
5dd940: 3
4bf75a: 3
4e0aff: 3
5de785: 3
4e14c9: 3
5ddec4: 3
46e540: 3
5df2c7: 3
47c1c3: 3
4925c4: 3
48d342: 3
49bdc6: 3
45ff4a: 3
5decc1: 3
413884: 3
411641: 3
48d143: 3
410d81: 3
4de8c3: 3
4e2129: 3
4d9302: 3
45fd41: 3
5ed2c5: 3
524181: 3
45a086: 3
5de4c0: 3
4a3b0a: 3
4a2e81: 3
523f02: 3
498202: 3
497c60: 3
5240c1: 3
497b20: 3
5deb70: 3
498580: 3
5f7bf0: 3
498450: 3
498400: 3
414659: 3
498243: 3
524082: 3
498185: 3
497a85: 3
48f150: 3
41b9a4: 3
406f4b: 3
48d68a: 3
48e560: 3
4983e0: 3
497eec: 3
634540: 3
5debb0: 3
4597c2: 3
459814: 3
6338da: 3
633501: 3
6334d0: 3
5df568: 3
633305: 3
6332b0: 3
5df3c0: 3
5dde43: 3
408b8d: 3
5dde16: 3
459783: 3
634502: 3
4c54cf: 3
5de2b0: 3
5de2c2: 3
5dec01: 3
5ddd50: 3
5debff: 3
5ddb90: 3
5dda80: 3
5dd216: 3
5dfc46: 3
5dd180: 3
5dccf9: 3
633440: 3
5dd9f0: 3
5deea2: 3
5de902: 3
5de942: 3
5df286: 3
5de9db: 3
5de745: 3
5de6c4: 3
5df255: 3
5de683: 3
5de646: 3
5de604: 3
5de5c8: 3
5dec94: 3
5dea34: 3
633416: 3
6333c0: 3
5deac7: 3
5dfb67: 3
5deb02: 3
411600: 3
5df800: 3
5df5a0: 3
5df480: 3
63360f: 3
633959: 3
45fcc1: 3
5ed310: 3
5e48c3: 3
5ebfa0: 3
5ebec2: 3
5ebe80: 3
5e4870: 3
5d8d41: 3
5e4880: 3
5e22c4: 3
4d15c9: 3
4d141c: 3
4d139b: 3
5d8b18: 3
5eb590: 3
45fc8c: 3
45fbd6: 3
45fa42: 3
45fa13: 3
5dde81: 3
47de80: 3
5fa401: 3
5fa3c0: 3
5de3c0: 3
4285aa: 3
5de3be: 3
5ddf71: 3
5d8808: 3
5dcf19: 3
5dcc41: 3
5dcc28: 3
5d8903: 3
5ded01: 3
5fad4b: 3
5d8887: 3
5df8c0: 3
633860: 3
5d8842: 3
497a46: 3
5df343: 3
5de11c: 3
428500: 3
5d8741: 3
5dd245: 3
5eb6e0: 3
5d8680: 3
6073c3: 3
478f54: 3
5d8645: 3
5d8790: 3
5d8604: 3
5d85e0: 3
5eb5c0: 3
5d8d0f: 3
45e988: 3
497d05: 3
5dcd03: 3
5d8721: 3
477ffb: 3
45ecd9: 3
4a3216: 3
5de581: 3
6332df: 3
411240: 3
5d8d81: 3
48dc40: 3
45b840: 3
5245c0: 3
60b550: 3
4d1603: 3
5d8940: 3
524540: 3
5e2303: 3
523d83: 3
4979f0: 3
4aff56: 3
5dcf71: 3
5d88c1: 3
45e860: 3
46cdb0: 3
49856b: 3
48e58c: 3
633881: 3
459084: 3
45b7ee: 3
5df456: 3
5df6a1: 3
45b0c8: 3
48d428: 3
5dcfd0: 3
4a4945: 3
63319d: 3
4df6c1: 3
5ddc28: 3
5df5d0: 3
4115c1: 3
460200: 3
411100: 3
5df402: 3
49bc83: 3
460281: 3
4601c3: 3
5ed2a0: 3
49bd80: 3
4e200d: 3
460740: 3
4b236a: 3
498282: 3
48d2c5: 3
408b40: 3
479d3c: 3
4769d1: 3
524100: 3
4dd440: 3
414900: 3
478fc0: 3
49bc00: 3
497a04: 3
4a4900: 3
5ce420: 3
4a5b31: 3
6073a0: 3
4a5200: 3
4a1384: 3
4a2e40: 3
59a9f0: 3
46232b: 3
497ac0: 3
50f8ea: 3
4dde88: 3
5dd124: 3
49bbc1: 3
459e84: 3
498b04: 3
524307: 3
6094e0: 3
5de704: 3
5de501: 3
48d463: 3
4a4981: 3
5fad0a: 3
524400: 3
609a80: 3
5de99b: 3
47df00: 3
5def80: 3
45f910: 3
505e89: 3
5243c3: 3
48d483: 3
5de8d1: 3
4cca5e: 3
45ec69: 3
45e880: 3
45e900: 3
45e8fb: 3
45e951: 3
45e9c0: 3
4145d5: 3
523b07: 3
4ad33a: 3
460800: 3
460840: 3
4a5b40: 3
523d00: 3
48e5c1: 3
459ed0: 3
4b22ce: 3
4aca82: 3
609500: 3
4acf96: 3
4a3b40: 3
492702: 3
4b151c: 3
4b8afc: 3
406c9a: 3
4acd81: 3
4acdf9: 3
5df8a7: 3
4cb5f6: 3
459095: 3
632df0: 3
609876: 3
5dd982: 3
4c4943: 3
524341: 3
523bf4: 3
4982c2: 3
45f940: 3
45ff15: 3
5deec1: 3
5ded60: 3
5dee70: 3
49bc41: 3
41384a: 3
5de800: 3
4767ca: 3
6090e0: 3
4acd6f: 3
5dd3ce: 3
4a750a: 3
4e0f07: 3
498307: 3
59f060: 3
4799a7: 3
523ec0: 3
524882: 3
524ac9: 3
479a4a: 3
48d329: 3
4df44e: 3
5eb7e6: 3
4c4936: 3
427485: 3
4148f0: 3
5dd144: 3
4ac0c0: 3
4c1d10: 3
5dd1c2: 3
462285: 3
5dd8d0: 3
4d1100: 3
5def10: 3
4282a3: 3
524241: 3
4e28c6: 3
5244c1: 3
460780: 3
45fd1b: 3
4d5d45: 3
49bd00: 3
410e00: 3
460190: 3
497c83: 3
4ace03: 3
5fa442: 3
458401: 3
477f8d: 3
479944: 3
632e0a: 3
5df606: 3
460241: 3
524500: 3
406cc6: 3
524641: 3
5df846: 3
50fd50: 3
4a49c6: 3
5ddf04: 3
48d6c0: 3
4df69b: 3
5e22a0: 3
476802: 3
4a48ee: 3
5dec42: 3
411038: 3
48d2be: 3
479900: 3
4770c6: 3
499070: 3
5df7da: 3
4138f2: 3
400480: 3
4a4b2d: 3
46c714: 3
4b22b5: 3
4a5082: 3
523ca0: 3
401d93: 3
6344d0: 3
5dcc86: 3
45ed4d: 3
4d6fc5: 3
479ac0: 3
609a76: 3
4799c0: 3
49bd45: 3
5dd900: 3
4a2425: 3
5de400: 3
47df81: 3
498344: 3
45ec10: 3
46e470: 3
46073d: 3
462334: 3
4b2305: 3
4de840: 3
4607f6: 3
4e09bf: 3
49bcc1: 3
459480: 3
5dda30: 3
524803: 3
5dda40: 3
4981c2: 3
479a27: 3
5ebf02: 3
457c41: 3
45f9c8: 3
498170: 3
4dc960: 3
4dded3: 3
458450: 3
47df7d: 3
47dec1: 3
4d3f81: 3
419244: 3
523f80: 3
47de40: 3
47aa4d: 3
4dc9e4: 3
4dca04: 3
4d6ef0: 3
5248c3: 3
524840: 3
457b00: 3
523e40: 3
457b88: 3
457c04: 3
523e01: 3
523dc1: 3
523d43: 3
5247c0: 3
413791: 3
47b280: 3
50fe81: 3
5fa383: 3
492550: 3
492582: 3
492604: 3
4926e3: 3
4028e1: 3
492744: 3
49279b: 3
408b01: 3
60a980: 3
524781: 3
41a3ae: 3
60a9c5: 3
46e78c: 3
46e707: 3
46e500: 3
46e4c3: 3
46edc2: 3
46e483: 3
4d701e: 3
4d6f45: 3
4d6f07: 3
4149c5: 3
523eb0: 3
411150: 3
523cd5: 3
523c52: 3
411180: 3
523a42: 3
523a00: 3
4111c6: 3
411200: 3
41bce0: 3
478bc2: 3
410f21: 3
41bddf: 3
413bc8: 3
413add: 3
413a50: 3
413904: 3
4110fb: 3
410f87: 3
410f40: 3
609541: 3
6091a0: 3
411570: 3
410df9: 3
524740: 3
524701: 3
5246c2: 3
524682: 3
524600: 3
524585: 3
524480: 3
4137c3: 3
410d70: 3
524441: 3
524380: 3
523c01: 3
5242c1: 3
524281: 3
410ed5: 3
524201: 3
5241c0: 3
524143: 3
524040: 3
524002: 3
523fc1: 3
523f41: 3
5fa450: 3
609880: 3
458220: 3
411581: 3
60b5c2: 3
414fd0: 3
60b583: 3
60ac20: 4
41b950: 4
60ac47: 4
60ac83: 4
6097a6: 4
60af43: 4
5f14c4: 4
47a8e9: 4
461657: 4
47c182: 4
458436: 4
401f82: 4
469a36: 4
5f1500: 4
4dde41: 4
608dc1: 4
60af05: 4
4ddd60: 4
45f3c1: 4
476211: 4
60acc1: 4
60c7c2: 4
4c245d: 4
4bf85a: 4
4bb582: 4
4cbcfd: 4
45f185: 4
47c10c: 4
47c0c0: 4
4c2480: 4
45f001: 4
4d6ec0: 4
45dd02: 4
47c140: 4
60b807: 4
60aec0: 4
46d75f: 4
60b7f0: 4
4ba009: 4
458440: 4
41b635: 4
426f15: 4
426f4e: 4
426f98: 4
426fc7: 4
45dd42: 4
45efc0: 4
45f049: 4
45f14b: 4
45f2c4: 4
45f2bf: 4
45f301: 4
45f3bc: 4
4bea21: 4
5fa4f0: 4
41b581: 4
41b483: 4
60b845: 4
4dde37: 4
41b445: 4
41b205: 4
47a70e: 4
5f14af: 4
60b882: 4
47c086: 4
4cac83: 4
4cac7f: 4
45dbc1: 4
47c200: 4
45db90: 4
45dc69: 4
426ca0: 4
47a941: 4
477ec2: 4
426cc0: 4
45dcfd: 4
4be9c1: 4
426e03: 4
426e80: 4
413286: 5
4ba26e: 5
608c77: 5
608c82: 5
4269c2: 5
4bf701: 5
60b483: 5
48c29f: 5
45da06: 5
60b445: 5
413446: 5
60b400: 5
47ba02: 5
41b57d: 5
41ba41: 5
41b9c1: 5
465220: 5
47a71e: 5
426989: 5
411353: 5
4d06c1: 5
41ba2c: 5
4582d0: 5
426960: 5
41924a: 5
60b010: 5
60b080: 5
4bea01: 5
4be3a6: 5
4ba490: 5
60c3b0: 5
4ba4c8: 5
45d9c3: 5
413438: 5
4c6ec7: 5
60b041: 5
4c765d: 5
4ce2e8: 5
462342: 6
478744: 6
4e100e: 6
462241: 6
5f0d00: 6
4be640: 6
465645: 6
477dcb: 6
50fe2d: 6
47d5d3: 6
60b187: 6
469842: 6
401f40: 6
4be613: 6
450100: 6
4d90c3: 6
60b1c3: 6
4d07c2: 6
450150: 6
407c45: 6
46d781: 6
4786c3: 6
506041: 6
478684: 6
60b160: 6
44fea0: 6
5fa341: 6
505f6f: 6
4ac841: 6
478640: 6
405480: 6
478943: 6
45924b: 6
407420: 6
478703: 6
4be3bb: 6
4d5e40: 6
47a54e: 6
4d2643: 6
45b0c1: 6
453460: 6
458e7b: 6
4dff50: 6
4534ae: 6
4d3f1f: 6
46581e: 6
45904d: 6
4112de: 6
4b9b80: 6
427ac1: 6
42839a: 6
458fae: 6
609bf6: 6
458e81: 6
478a41: 6
4cbd84: 6
478991: 6
4bb575: 6
4e1562: 6
4d8a82: 6
4d6041: 6
60b201: 6
4dd4c4: 6
4bf803: 6
4c2401: 6
458cb6: 6
4d09a0: 6
608ba0: 6
60b342: 6
4789de: 6
506008: 6
4df700: 6
505f07: 6
462210: 6
421e81: 6
478a1f: 6
47892a: 6
621010: 6
49e754: 6
422237: 6
422242: 6
60b2b0: 6
505e50: 6
60b9c3: 6
505ec1: 6
401f01: 6
4d6095: 6
4d26eb: 6
4187e8: 7
5eecc2: 7
4c3da9: 7
418500: 7
5ee902: 7
4246c2: 7
4246b0: 7
60c002: 7
60b741: 7
5fa500: 7
60b6c7: 7
476030: 7
45dc03: 7
48c4af: 7
609b80: 7
609b76: 7
609c00: 7
4185cb: 7
418642: 7
509541: 7
424701: 7
4c3a90: 7
426d02: 7
5eecb4: 7
60b703: 7
458590: 7
5ef78f: 7
467204: 7
60b940: 7
60b985: 7
418605: 7
60b2c7: 7
458484: 7
4c3d61: 7
4c3e40: 7
4c3c41: 7
4c3dc2: 7
4c3e10: 7
4c77bb: 7
4c60b1: 7
4c7ac0: 7
421543: 7
47a7a7: 7
60b305: 7
418b81: 7
60a141: 7
47cf3c: 7
60b6a0: 7
4585c0: 7
458575: 7
412590: 7
60ab42: 7
4583d0: 7
4c6100: 8
5f3200: 8
60c1e0: 8
4d92e6: 8
47d6c1: 8
47d737: 8
4d5a02: 8
4be710: 8
47b042: 8
4d8e45: 8
60a183: 8
608d80: 8
47b08a: 8
4be9f5: 8
4d7a0e: 8
4c5fea: 8
47d940: 8
4d9680: 8
424830: 8
50f7c0: 8
4770c4: 8
5fa304: 8
4bbcc0: 8
419200: 8
47d801: 8
5fa2f0: 8
4054c5: 8
4bbb7f: 8
4bbb82: 8
47a746: 8
4d9600: 8
4c60c1: 8
47d745: 8
48d605: 8
4c6004: 8
4c4851: 8
48d5fd: 8
4d9241: 8
609d00: 8
4c6441: 8
47d848: 8
4bc7c0: 8
609cf6: 8
4534c2: 8
47d91e: 8
515470: 8
424841: 8
479169: 8
47d7d4: 8
4bc281: 8
4ba784: 8
4cba64: 8
4ba763: 8
4bf8a9: 8
4d9200: 8
47d670: 8
47d685: 8
4d9282: 8
4d9657: 8
4184c3: 8
5f0b40: 8
47b004: 8
453580: 9
428396: 9
453540: 9
44fec0: 9
4055e3: 9
450050: 9
4cc740: 9
45a045: 9
4e0e04: 9
4e0703: 9
41881a: 9
47d613: 9
465502: 9
4190b1: 9
4654c1: 9
5f0aa7: 9
418e16: 9
4df840: 9
48d936: 9
407018: 9
4debef: 9
4dec00: 9
45b189: 9
406f81: 9
4b9b82: 9
60bd50: 9
4796d3: 9
405500: 9
47a7d7: 9
4e06d8: 9
4be6a0: 9
60c201: 9
465640: 9
41ab81: 9
4535c6: 9
45a071: 9
60b783: 9
48cb80: 9
4d3f1c: 9
60b7c4: 9
4192c0: 9
419284: 9
41abc2: 9
41ab40: 9
4dec93: 9
45b08e: 9
4d0b00: 9
609f81: 9
4df823: 9
60c880: 9
405603: 9
4c40be: 9
463b44: 9
465542: 9
60c640: 9
453502: 9
476d32: 9
60a781: 9
4ba002: 9
60ab03: 9
60aad0: 9
418942: 9
405552: 9
5fa282: 9
47cf43: 9
46549b: 9
47952c: 9
47cf94: 9
41914c: 9
47d086: 9
4c5a81: 9
48d728: 9
47d5a6: 9
4df240: 9
4190c0: 9
419129: 9
4191fa: 9
60c3c2: 10
41829a: 10
4020b2: 10
412cb5: 10
60b750: 10
407020: 10
4c45d3: 10
4de285: 10
50f5a0: 10
60a8c2: 10
407c40: 10
4c8bf8: 10
5f0881: 10
4191ad: 10
418480: 10
412d80: 10
509530: 10
60c2f0: 10
4652c2: 10
407c10: 10
406d70: 10
407959: 10
407984: 10
465282: 10
4c89c1: 10
4de347: 10
4de260: 10
4de2c6: 10
407bca: 10
60a6e0: 10
407040: 10
47c682: 10
47c76c: 10
60a707: 10
477114: 10
4bd403: 10
4079c1: 10
4c8a0e: 10
60a743: 10
60bc00: 10
4c8c03: 10
47c641: 10
4de315: 10
60bcd0: 10
4c6c12: 10
412cc0: 10
4bc20c: 10
4cfad1: 11
60be10: 11
459465: 11
4be7cb: 11
418242: 11
4be8b1: 11
60b600: 11
4d1d20: 11
4be846: 11
4be8c6: 11
4be81f: 11
60b645: 11
4be643: 11
60b680: 11
46f786: 11
4bbbc0: 11
60c300: 11
4bd3f1: 11
4bb18a: 11
50fec5: 11
4bc79c: 11
41821c: 11
4cb4f6: 11
4b966a: 12
457f40: 12
4240c0: 12
427fde: 12
462c47: 12
462b80: 12
462b46: 12
457edc: 12
60bd10: 12
462a40: 12
4da9c8: 12
457f04: 12
50b042: 12
457e81: 12
457211: 12
423fd0: 12
4275d7: 12
4274c2: 12
4280d0: 12
4182c1: 12
4596c1: 12
462a83: 12
418ec1: 12
428201: 12
60c343: 12
45de63: 12
459e3f: 12
4d1f17: 12
459e42: 12
469e85: 12
469f01: 12
4282a7: 12
50fe1a: 12
42858e: 12
424081: 12
459e04: 12
469e45: 12
428506: 12
4dec88: 12
42854c: 12
60b4b0: 12
469e24: 12
469eea: 12
4deb7b: 12
4deb80: 12
457ec1: 12
4bb077: 12
424144: 12
4bb001: 12
467900: 12
47ac02: 12
4d1c40: 12
424043: 12
467953: 12
42400c: 12
457e8c: 12
406cdc: 13
419b4a: 13
4c6c41: 13
60bd80: 13
4bd3c3: 13
412b10: 13
476f9a: 13
4b972c: 13
4be980: 13
4ca34a: 13
4be6c2: 13
4be972: 13
4c8881: 13
4c8868: 13
4c8902: 13
4c8940: 13
4be482: 13
4b98c0: 13
509b81: 13
509b73: 13
401f87: 13
4c89b9: 13
60a830: 13
60bcc3: 13
60b140: 13
4d58ce: 13
4bea63: 13
4b988a: 13
412b41: 13
4b9941: 13
4b9902: 13
4be5a0: 14
4c4083: 14
60c0c1: 14
4c4150: 14
60a10e: 14
498c81: 14
4b9693: 14
5ef142: 14
50f807: 14
60bf40: 14
5f0900: 14
4d9170: 14
498bc1: 14
4be5c0: 14
60a847: 14
60c0d0: 14
4d8c14: 14
60b0c0: 14
4c6ae1: 14
4c57c0: 14
4698c0: 14
60b105: 14
4696c9: 14
469873: 14
479b89: 14
4283c0: 15
457380: 15
4ba69e: 15
46af44: 15
45b2c1: 15
4bdf02: 15
5f0984: 15
60bd40: 15
45a49a: 15
4c1d36: 15
45a180: 15
4284da: 15
4ba648: 15
45b240: 15
4c3ec4: 15
4beb2a: 15
46af1c: 15
4d9193: 15
60adc5: 15
45ee49: 15
4dff48: 15
4282c1: 15
465632: 15
464b80: 15
408dd0: 15
445780: 15
60c4c0: 15
60b501: 15
428424: 15
45a080: 15
4cd441: 15
41ae42: 15
60b4c7: 15
4bcf68: 15
609f51: 15
4be000: 15
443207: 15
427441: 15
4bdee2: 15
4d2123: 15
46487b: 15
464e86: 15
4be443: 15
45edc0: 15
427e80: 15
4d1fc1: 15
427e30: 15
42782f: 15
45a304: 15
45a417: 15
60a5d5: 15
60bef0: 15
4c4070: 15
427e50: 15
60a885: 15
60bf01: 15
45a52b: 15
427420: 15
4d2074: 15
609e31: 15
4281ea: 15
45a543: 15
427f46: 15
60c100: 15
4594c0: 15
4df202: 15
4b9c01: 15
427f99: 15
4593c4: 15
45a2d1: 15
4b971d: 15
4df729: 15
428090: 15
45ee80: 15
4c3f12: 15
50fda2: 15
427f3a: 15
4ba6c7: 15
4285c7: 15
464b60: 15
4e17a5: 15
428040: 15
464b00: 15
4649bf: 15
4649c4: 15
464883: 15
45a340: 15
464900: 15
45a443: 15
45ee01: 15
4d1d68: 15
4c4170: 15
45a241: 15
45a20c: 15
427ec0: 15
45a1dd: 15
45a160: 15
41a599: 15
609e41: 15
427bc1: 15
4a1344: 16
46f427: 16
46f247: 16
46f310: 16
60bd01: 16
406bd8: 16
470041: 16
406def: 16
46f4c0: 16
4b1716: 16
49ee79: 16
4a7345: 16
46f289: 16
458b44: 16
46f2c0: 16
4c42e0: 16
458acc: 16
47c7ad: 16
498b93: 16
408a1b: 16
4b9bc1: 16
46ff42: 16
49ed4c: 16
458ba5: 16
477e81: 16
46f132: 16
4a355c: 16
406b60: 16
4a3c01: 16
46ef90: 16
4a3c46: 16
46f758: 16
406b80: 16
4cc600: 16
49c85c: 16
4a61c0: 16
49ec94: 16
458a80: 16
46fe60: 16
60bc40: 16
41d3ac: 16
41d350: 16
4700b0: 16
46fe83: 16
4c4ed6: 16
4700c0: 16
47002f: 16
46ff9c: 16
46ff00: 16
4a30c0: 16
46fec1: 16
606920: 16
4a3580: 16
46f202: 16
46f1c0: 16
46f184: 16
46f140: 16
46efc2: 16
49f669: 16
46fa89: 16
46f472: 16
60bb42: 16
46f541: 16
4cac0f: 16
4a1244: 16
4b9c58: 16
4a32c1: 16
49ecc3: 16
4a3eb0: 16
49f0e0: 16
49f000: 16
50f8d3: 16
406c00: 16
49ac4a: 16
4a2541: 16
4c4ad8: 16
4a3bcd: 16
4a131f: 16
4b9231: 16
4b16c4: 16
4a2b41: 16
49e95f: 16
4b9245: 16
46f505: 16
49ee81: 16
4a88c0: 16
4a3002: 16
4a724a: 16
4a3ec2: 16
4a3e00: 16
4b8e40: 16
458b0b: 16
4a3c82: 16
4b3d22: 17
49d283: 17
4b8a51: 17
4ad215: 17
4d6403: 17
49f700: 17
49f0e6: 17
49b8c8: 17
4b5d7e: 17
4b3782: 17
49ed5e: 17
4b0b82: 17
4c434f: 17
4a5d8f: 17
4b333a: 17
4b3583: 17
4b35ff: 17
4a7bda: 17
4b7745: 17
4b7780: 17
4d2e50: 17
4ad6af: 17
4b4443: 17
4b64d8: 17
4ac0c7: 17
4a578b: 17
4b24c7: 17
4b375f: 17
4b6a23: 17
4b59a0: 17
4b5950: 17
4ad2bb: 17
49d2c8: 17
4a4b2a: 17
4b6509: 17
4b3523: 17
4a5742: 17
4ace42: 17
4b3b02: 17
4a573a: 17
4b4403: 17
4a3a01: 17
49ed03: 17
4a57c3: 17
4a5840: 17
4b3242: 17
4b3082: 17
4b5a02: 17
4ad131: 17
459200: 17
4ac38d: 17
4a3a93: 17
4ace2f: 17
4b3a4a: 17
4b3b44: 17
4a5303: 17
49f004: 17
4a7043: 17
60c090: 17
4a3bc1: 17
4a30cc: 17
4b397d: 17
4a3ac3: 17
4b6a42: 17
49d3c4: 17
4a3b00: 17
4a314f: 17
4b2593: 17
4a39c1: 17
4b2132: 17
4b3341: 17
427e0d: 17
4a3125: 17
4b3001: 17
49c7ef: 17
4ad620: 17
4b248d: 17
4a7781: 17
4b59db: 17
4aced0: 17
49b900: 17
4ad643: 17
4b5b4a: 17
4b34d4: 17
4a3a66: 17
4b23c5: 17
4b2403: 17
4acb81: 17
4acbc1: 17
4b0989: 17
4ad1ba: 17
4b2143: 17
4a58c5: 17
4b08b0: 17
4b3555: 17
4accd6: 17
4b6554: 17
4b5acf: 17
4b5f61: 17
4a3e22: 17
4b5f02: 17
4ad1c4: 17
49ed82: 17
4b4fa6: 17
49e6d3: 17
4acfd8: 17
4acb41: 17
4b28bd: 17
4b2181: 17
4a2400: 17
427dc6: 17
4b6e80: 17
4a72c0: 17
4b305a: 17
4a74f2: 17
4a5340: 17
4a7502: 17
4b6e41: 17
4a5804: 17
4b0cc5: 17
4b6dc1: 17
4b6bc1: 17
4b6fa1: 17
4b3e62: 17
4b76c4: 17
4b0b6e: 17
4b3147: 17
4b2f82: 17
4b5a44: 17
4a5eef: 17
4b7700: 17
4b40aa: 17
49e9c1: 17
4b33c2: 17
4ad301: 17
49b9d3: 17
49edc5: 17
4b6149: 17
4bdd83: 17
427d80: 17
4a701a: 17
49d263: 17
4a7086: 17
4a75b3: 17
4d8d29: 17
4b69c0: 17
4b6b64: 17
4b6b81: 17
4a7a0a: 17
4b6c03: 17
4ad2c3: 17
4b6dbc: 17
4acb29: 17
4a35a5: 17
4a8ac0: 17
4aca01: 17
45ebe1: 17
4ad7f2: 17
4a50ab: 17
49d404: 17
4b17c3: 17
4b5d83: 17
4ac404: 17
45ed81: 17
4a5257: 17
4be520: 17
4b2e80: 17
4a4b45: 17
4b5b11: 17
4ad241: 17
45eb8b: 17
4bb083: 17
4a70c0: 17
4b3603: 17
49d302: 17
4b1867: 17
49c800: 17
4a7c2e: 17
4b7141: 17
4b0804: 17
4ac3e0: 17
4a3e81: 17
418f1e: 17
4a5881: 17
4b6c40: 17
4b5a82: 17
4be4c0: 17
4be547: 17
4a3534: 17
4b3e84: 17
4b6181: 17
4b179f: 17
4a5bcc: 17
4a301c: 17
45eca5: 17
45ed00: 17
4b3237: 17
4591d8: 17
4a5f06: 17
4b08d4: 17
4a5c49: 17
4b69a4: 17
4b2f43: 17
4b2395: 17
4b2ec5: 17
4acd59: 17
4ac345: 17
4be3c2: 17
4a8a59: 17
4b095f: 17
4a521f: 17
4a5c81: 17
4b6581: 17
4b4ec0: 17
5ef0ad: 17
4a5b76: 17
4be404: 17
4b3381: 17
4b6b1b: 17
4a395f: 17
4b3412: 17
4a7b05: 17
49f441: 17
4a4226: 17
49f652: 17
4a5900: 17
4a7ad2: 17
4a3545: 17
4b2f02: 17
49e983: 17
4b4752: 17
4b5fd8: 17
4ad142: 17
4ac9c6: 17
609c11: 17
4b28c4: 17
4b2587: 17
4b2862: 17
4b7132: 17
4b2fc6: 17
4a8b01: 17
4b6d20: 17
4beb80: 17
4b3980: 17
4a8a80: 17
4e0a68: 18
458ee7: 18
60be43: 18
45a0da: 18
4ddb02: 18
4df360: 18
459f00: 18
4ddbc5: 18
4ddb70: 18
4ddacd: 18
4dda70: 18
457f80: 18
457f60: 18
467b81: 18
459189: 18
4d8d66: 18
499710: 18
4ad865: 18
4d8d81: 18
60c8c0: 18
476d36: 18
4e0acf: 18
499704: 18
4e28ed: 18
459f4a: 18
608dc8: 18
408f0e: 18
4c64fb: 18
4780a2: 18
4df6df: 18
609dc0: 18
609da1: 18
4e0997: 18
4e1497: 18
458f08: 18
4dd190: 18
4ba612: 18
459fc1: 18
408e04: 18
45a100: 18
4dda81: 18
47a143: 18
4e0fa9: 18
60c320: 18
408e84: 18
411280: 18
458e45: 18
467967: 18
4ddb81: 18
4b95c0: 18
45a005: 18
4c5798: 18
60bb10: 18
4e0a80: 18
408ec3: 18
4dd1c4: 18
609801: 18
457fe0: 18
4bb108: 18
459f9e: 18
608f04: 18
50f881: 19
4e00c4: 19
60c480: 19
60c440: 19
4a2dc4: 19
4b07d0: 19
49ccc1: 19
49b935: 19
49c781: 19
4ad721: 19
60c900: 19
4a7b00: 19
49c7c0: 19
49b940: 19
5f1e41: 19
4a7af5: 19
4c4e58: 19
49b9c0: 19
4a1200: 19
4d7970: 19
4a7bc1: 19
49b8c1: 19
4a7c00: 19
4b239d: 19
60a790: 19
4b04ea: 19
4b0781: 19
4a6400: 19
4b08d9: 19
50fa03: 19
4a6502: 19
4b0980: 19
50f982: 19
4cbd04: 19
49c742: 19
458262: 19
50f902: 19
421513: 19
50fa41: 19
4a6583: 19
50f845: 19
4b1985: 19
4a660c: 19
4a778b: 19
4a656d: 19
50f9c0: 19
4b0778: 19
609891: 19
49b981: 19
4a6685: 19
4d8d11: 19
4a72c2: 19
4a6451: 19
50f951: 19
4a63c2: 19
4b19dc: 19
60bc82: 19
4a6642: 19
4b1b10: 19
4a2e2e: 19
50f820: 19
498b70: 20
4bf7aa: 20
608ec0: 20
498a81: 20
4bbac1: 20
4ac080: 20
4a51c4: 20
4a474d: 20
458c80: 20
4a4381: 20
4a504d: 20
4a4342: 20
608e85: 20
4a7341: 20
4d2ed4: 20
4ac101: 20
4cc760: 20
4b9fe8: 20
4571e6: 20
459243: 20
4a4581: 20
4a61c3: 20
4bee40: 20
50fe50: 20
4ada01: 20
4d8b79: 20
4abe43: 20
4ac00f: 20
4abfc5: 20
498b81: 20
4a4402: 20
60a5c3: 20
4abf42: 20
4abec0: 20
4cc7f7: 20
4c4582: 20
4a4801: 20
4a515b: 20
4a50c2: 20
4a4dd5: 20
60bf30: 20
49ecc0: 20
49e972: 20
4a4d81: 20
49ecb3: 20
5f1dc3: 20
4a4680: 20
4a518d: 20
4d8e35: 20
4d2fc5: 20
4a44f5: 20
4cc7a2: 20
458276: 20
4acfc0: 20
4a4483: 20
4a5b85: 20
4ac044: 20
4a7243: 20
458284: 20
49af54: 20
4a88e0: 20
4a4663: 20
4ad342: 20
49ac42: 20
49ee43: 20
4a47c5: 20
4d2f9a: 20
4a4301: 20
4a4261: 20
4a4555: 20
4a46c0: 20
4a43c3: 20
4b07e2: 20
4a2b6a: 20
4a73c3: 20
4abdb0: 20
5f0588: 20
4a4782: 20
4a4501: 20
5f1e02: 20
4abe02: 20
4a4d50: 20
4a2bc3: 20
4d8adc: 20
41afbb: 20
4a4294: 20
4a4442: 20
4abdc6: 20
4a2b9a: 20
4abe90: 20
4abf05: 20
5f07a8: 20
4a42c1: 20
4abf80: 20
4ad9f0: 20
4a4c0f: 20
48a9c3: 21
4e0b02: 21
487c6d: 21
4e0691: 21
4dfad0: 21
48acc0: 21
48b044: 21
4e09c1: 21
6097f0: 21
4baf81: 21
4df11d: 21
48b900: 21
4e2842: 21
4d0d42: 21
4dea81: 21
4e2440: 21
4d0d32: 21
4d0cd9: 21
487b2f: 21
48afc3: 21
48abee: 21
47a1c2: 21
48ae03: 21
4e2b1a: 21
484242: 21
4df890: 21
4e2b8c: 21
48ab80: 21
484302: 21
48ae41: 21
48aa44: 21
484105: 21
4e2641: 21
48ab42: 21
4dfba0: 21
484b82: 21
49c841: 21
487b80: 21
48ab10: 21
484080: 21
48a980: 21
487c10: 21
4dfc01: 21
4df8c1: 21
4e2bd7: 21
4dfe65: 21
60c680: 21
4df310: 21
47a040: 21
609043: 21
48adfe: 21
609c91: 21
48aa8c: 21
4b8c43: 21
48cb70: 21
484220: 21
60a148: 21
4e2680: 21
4e2aec: 21
4e2982: 21
484280: 21
4d0ac0: 21
4d0a63: 21
4d0a04: 21
4e27f5: 21
4e0b40: 21
484402: 21
50fb42: 21
4e0ec6: 21
47a0c1: 21
4dfa80: 21
4e2887: 21
47a082: 21
48b8e0: 21
4d0c02: 21
60bf83: 21
4842c1: 21
47a012: 21
48ac78: 21
46ce80: 21
4deb00: 21
4e2b44: 21
46cec1: 21
4e17da: 21
47a180: 21
4df97d: 21
47a100: 21
4dfbc1: 21
4dea70: 21
4e2c96: 21
48a943: 21
48a927: 21
479fc2: 21
4840c3: 21
4e263c: 21
4d0abd: 21
4e05cb: 21
4deaca: 21
48aac3: 21
4e270e: 21
487b40: 21
4e2cc4: 21
4dfb01: 21
4e2932: 21
4e2943: 21
4df1c5: 21
48af8f: 21
48ac80: 21
4e2c02: 21
4d09c2: 21
48aa04: 21
4df150: 21
4df183: 21
4d0bd0: 21
4e0334: 21
4df982: 21
4e2800: 21
41b64a: 21
48b96e: 21
4d8b80: 22
5f0b47: 22
608cc0: 22
41b2d8: 22
41b1c0: 22
60a942: 22
4c4180: 22
4bf6bd: 22
45d9f1: 22
60a001: 22
45da32: 22
4c5101: 22
462d02: 22
608d43: 22
41b294: 22
608d04: 22
41b300: 22
608c41: 22
609001: 22
4bf6c0: 22
45db55: 23
4cb93f: 23
418fce: 23
41b68c: 23
4d5705: 23
60c840: 23
45db0c: 23
45b5f0: 23
60bc90: 23
60af87: 23
60be81: 23
4c3b82: 23
60c350: 23
4bc359: 23
45da82: 23
4b9481: 23
406e02: 23
45dac1: 23
60a190: 23
45da60: 23
4a2556: 23
420c20: 23
4b9882: 23
4b987f: 23
4b9b49: 23
4d1c01: 24
45b641: 24
45b602: 24
45fec0: 24
401ed0: 24
60a8e0: 24
4bd381: 24
4d6e04: 24
4ccd12: 24
60bb02: 24
4d1be2: 24
4b9500: 24
407399: 24
4c40c3: 24
4bbec6: 24
419b30: 24
457e60: 24
457415: 24
60c281: 25
4ba45b: 25
5f078f: 25
4c3b40: 25
462cc5: 25
47a7e4: 25
60c2b0: 25
60a7c3: 25
408d02: 25
4d2dc3: 25
60be60: 26
462c84: 26
608f42: 26
458e0c: 26
458d80: 26
4bf6b4: 26
458bc0: 26
609ff1: 26
462c60: 26
458cc0: 26
47c584: 26
443278: 26
41b6c0: 26
402243: 26
458a0f: 26
46720b: 26
458d45: 26
4678e0: 26
461093: 26
458a44: 26
458c41: 26
458d31: 26
458c30: 26
60a0c1: 27
608b90: 27
45d941: 27
4c6503: 27
47b3c1: 27
45da41: 27
4d3edb: 27
60bb90: 27
4d3f6d: 27
45d900: 27
60abc5: 27
60b210: 27
60ab80: 27
47d301: 27
60ac00: 27
4cb980: 27
427a80: 27
4c3c01: 27
45d98d: 27
467703: 27
4cb944: 27
45d8f0: 27
467602: 27
60a091: 27
4ba5eb: 27
4676f7: 28
60c270: 28
5f0bcf: 28
60a907: 28
467681: 28
60bc10: 28
60b243: 28
4c4681: 28
60b8a0: 28
4c3a42: 29
4ce0e1: 29
49ce34: 29
60bad0: 29
60c140: 29
60b902: 29
60a530: 29
4bdcd6: 29
60a804: 29
4c7f17: 29
60b8c7: 29
459796: 29
419b3b: 29
60b387: 30
47c49c: 30
467bc0: 30
4c3d06: 30
60b360: 30
47a8b7: 30
47c226: 30
4c3ac0: 30
47a8c2: 30
606940: 30
4c239e: 30
60bac0: 30
4c5b04: 30
4c3e85: 30
467711: 30
467b00: 30
467609: 30
4c3b02: 30
47c2c6: 30
477f88: 30
47bbc3: 30
47c081: 30
47c242: 30
47c284: 30
467c05: 30
4c3cdd: 30
4679e8: 30
467af2: 30
47c05d: 30
467a00: 30
467b41: 30
467c23: 30
4d2d90: 30
467a41: 30
467980: 30
4cc88d: 30
609b11: 31
60bf60: 31
60afc1: 31
60a303: 31
60aa30: 31
418e01: 31
608fd0: 31
4bce0c: 31
60c082: 31
45b401: 31
476c81: 31
476994: 31
476dc5: 31
4cab87: 31
4c2202: 32
460f00: 32
4c1ce6: 32
60aa81: 32
5f154b: 32
41c680: 32
4d7a1c: 32
45b280: 32
460ef0: 32
5f0aef: 32
460e82: 32
460e44: 32
460d01: 32
460cc5: 32
460cb0: 32
460d40: 32
4a8542: 32
60ad70: 32
60ad44: 32
461050: 32
60c6c0: 32
4d5d41: 32
60aa47: 32
4a8503: 32
4248b0: 33
4a35c2: 33
418a14: 33
4a265c: 33
4a2afd: 33
4a2e4a: 33
4a3056: 33
467784: 33
4a2f01: 33
4a2740: 33
4a2801: 33
41383e: 33
4a2888: 33
4a2ea2: 33
4137ec: 33
4a3da0: 33
4d6de4: 33
4a750f: 33
4a3f5f: 33
4a28c6: 33
4a2901: 33
4a294b: 33
4a2984: 33
4c8cc2: 33
4a29c6: 33
49d1c0: 33
4a2a81: 33
4a2b00: 33
4a87f0: 33
4a8842: 33
49f400: 33
4a8803: 33
4a3081: 33
4a31f1: 33
4a2f83: 33
4073c1: 33
4a1380: 33
49d140: 33
44a4b0: 33
412d90: 33
413841: 33
4a2fc4: 33
608c01: 33
4c0301: 33
4a2a44: 33
49d005: 33
49ec16: 33
4c1d43: 33
49eb45: 33
49eb81: 33
4ac838: 33
4ac869: 33
49c3b5: 33
60beb0: 33
4a3f94: 33
4a3dc0: 33
4c4ef5: 33
49ec41: 33
60a310: 33
44a4c0: 33
49ef80: 33
60c740: 33
49f101: 33
49efc0: 33
4a2a02: 33
477e4f: 33
45ff01: 33
4a3201: 33
4a3e72: 33
4c6cc1: 33
4a2681: 33
4a2701: 33
4a2782: 33
4a27c3: 33
4a2840: 33
4b8adf: 33
49f142: 33
4bdcc3: 33
4a2f56: 33
49e8cd: 33
4a400f: 33
4b1f21: 33
5fac81: 33
49ea41: 33
4a2ec1: 33
413431: 33
49d1b0: 33
4a26c1: 33
4a3fc0: 33
49f680: 33
4aff06: 33
49f0b7: 33
49f581: 34
4acf80: 34
4b0de3: 34
47a857: 34
4b046f: 34
457481: 34
420cc2: 34
60a341: 34
411486: 34
60b284: 34
47c481: 34
49f500: 34
49f544: 34
45b380: 34
4d0580: 34
60ae02: 34
47c4b0: 34
49f4da: 34
4b04c0: 34
60c730: 34
4b43e4: 34
60c2c1: 34
4b0857: 34
6097c1: 35
458200: 35
41b180: 35
414970: 35
60a541: 35
60a582: 35
4c4555: 35
60af70: 35
609d11: 35
4bdd42: 35
41c6c0: 35
60ad87: 35
478488: 35
4bafd0: 35
60c040: 35
413703: 35
414a1c: 35
49b744: 36
4a2473: 36
4bee81: 36
4acf70: 36
412f40: 36
4a0843: 36
4a0907: 36
419440: 36
49a331: 36
4a1fe0: 36
4a7610: 36
49b680: 36
4a6490: 36
499fc6: 36
49b56f: 36
49af00: 36
4a2480: 36
412f00: 36
49d11c: 36
4a7776: 36
49a930: 36
4a5e97: 36
49a131: 36
4a1182: 36
60acd0: 36
499f06: 36
49b78c: 36
457520: 36
49be80: 36
49f3ee: 36
4a79c4: 36
4a64c7: 36
4a794f: 36
49e740: 36
499ec1: 36
4a6183: 36
4a08cf: 36
4a7a41: 36
4a6341: 36
4a7b81: 36
4a52c3: 36
4a52b8: 36
499e3e: 36
499e43: 36
4a3b9f: 36
4a3993: 36
49a380: 36
49a259: 36
4adc48: 36
498a3d: 36
4a0980: 36
49a1c4: 36
4b18ee: 36
49f5cb: 36
4a2002: 36
49a187: 36
4b1900: 36
49ea07: 36
49ac11: 36
4adc27: 36
4b169c: 36
499e81: 36
4adb6a: 36
49a281: 36
49a2c8: 36
49a440: 36
4a2509: 36
4b0082: 36
4b0a89: 36
46718f: 36
49abc5: 36
49a807: 36
4b0043: 36
4a1160: 36
4c7ed8: 36
4a0472: 36
4b0a0b: 36
49a3c0: 36
4a7701: 36
49b601: 36
4b89fe: 36
4b8b01: 36
4a76d3: 36
49b700: 36
4a7b4d: 36
49ad10: 36
49a985: 36
4ac7a0: 36
4a7301: 36
4a71c0: 36
49c35e: 36
4adb80: 36
4afe50: 36
417f4e: 36
49b5c3: 36
49be50: 36
49a427: 36
49e738: 36
49ae60: 36
49ae91: 36
49aec4: 36
4131c2: 36
4adbc0: 36
49a484: 36
499f44: 36
49e898: 36
49a5c6: 36
49a645: 36
4adae7: 36
4afe85: 36
4ac499: 36
49ef4d: 36
49ef01: 36
4ac301: 36
49a745: 36
49a881: 36
4ac2c2: 36
49a946: 36
4ac2b0: 36
49a780: 36
499faf: 36
4a8bc0: 36
4a7a00: 36
4adcc6: 36
4c02af: 36
49b6c2: 36
4a2d70: 36
4a5981: 36
49a343: 36
4a6140: 36
49a55f: 36
4b123d: 36
4ac982: 36
4989d0: 36
45b34e: 36
4a32a2: 36
420d40: 36
467241: 36
49a7c1: 36
4a628d: 36
4a0a03: 36
49c83e: 36
49cc72: 36
49cfc0: 36
498a41: 36
4ba954: 36
4b13f0: 36
49c332: 36
4a8c95: 36
49c289: 36
49c243: 36
49c200: 36
4a6f70: 36
49bb23: 36
4a2380: 36
4a6242: 36
4a0940: 36
49a4c3: 36
4da981: 36
4a0481: 36
4a11c1: 36
4a8441: 36
4ac891: 36
4a8981: 36
49b641: 36
4a5e52: 36
4131bc: 36
4a0886: 36
49b802: 36
4affc0: 36
4ac8c0: 36
4cc9df: 36
49bb4c: 36
457466: 36
49b586: 36
49ee09: 36
4ac910: 36
4a24c0: 36
4b1245: 36
4c7d77: 36
49e7d4: 36
4a7a83: 36
4cc333: 36
4a6205: 36
49b841: 36
4a6330: 36
499d37: 36
49b881: 36
49b7f0: 36
417f9c: 36
4a77c1: 36
4a8c42: 36
4b1602: 36
4a23c4: 36
49c186: 36
4d3ed7: 36
49c1c3: 36
4a8a03: 36
4a89c1: 36
4b8a49: 36
49bec4: 36
4ac7c0: 36
4a8955: 36
49f709: 36
4a8b83: 36
4a8901: 36
4a75ce: 36
4ac940: 36
4a7190: 36
4a7201: 36
49aa01: 36
4a7381: 36
49bb82: 36
49ba00: 36
499740: 36
49c15d: 36
4b0017: 36
49a502: 36
49a607: 36
4a0800: 36
49b530: 36
49a847: 36
49a9c6: 36
609a91: 36
49ba80: 36
4a25c4: 36
49ba40: 36
49a5a5: 36
49be00: 36
412eca: 36
4a62c4: 36
4a2d80: 36
4a6382: 36
49a141: 36
4b03b0: 36
498cd4: 36
4a7291: 36
4a6f81: 36
49eec3: 36
4bddb2: 37
60a383: 37
478f82: 37
4ad51b: 37
47adf9: 37
4aca50: 37
4c9601: 37
4a8680: 37
60ad03: 37
60c760: 37
4d7e20: 37
4c02c1: 37
60b3c2: 38
4136ca: 38
60a2a0: 38
413682: 38
4d5d1b: 38
60ba07: 38
4b99f0: 38
47cedb: 38
41468a: 38
60c383: 38
60c780: 38
4bbe5d: 38
609d41: 38
60c800: 38
412e00: 38
413202: 38
4cb104: 38
412dc0: 38
47a816: 38
4a85fa: 38
60bec1: 38
41364c: 38
41324f: 38
60a3c4: 38
414b20: 38
478f7b: 38
4a8604: 38
414983: 38
40263b: 38
4574cc: 39
458170: 39
445da1: 39
47ccca: 39
457472: 39
60c400: 39
428f50: 39
458182: 39
457512: 39
44607a: 39
446084: 39
4461c0: 39
443842: 39
4d81b0: 39
445c03: 39
4d8090: 39
443642: 39
479700: 39
428a81: 39
4461b0: 39
4432c3: 39
45839b: 39
445b67: 39
443490: 39
443350: 39
445a04: 39
445a82: 39
470180: 39
4701c6: 39
4703c0: 39
470410: 39
4ce070: 39
445be6: 39
4bddc3: 39
445981: 39
4431f0: 39
44586c: 39
4022c5: 39
4a8581: 39
443282: 39
4021c0: 39
4021b0: 39
4433c1: 39
411340: 39
4583c0: 39
470352: 39
4112c1: 39
445b03: 39
443381: 39
443621: 39
4703a9: 39
445d50: 39
445800: 39
4d8140: 39
4581d0: 39
445ac1: 39
445880: 39
4457c3: 39
4458da: 39
445903: 39
445a42: 39
4d7aa4: 39
428c85: 39
428c70: 39
45b082: 39
428f8c: 39
443752: 39
428a40: 39
4435c0: 39
470300: 39
458356: 39
443504: 39
443805: 39
4434c0: 39
445dc0: 39
4d8ac5: 39
4438c9: 39
443914: 39
411460: 39
4459c1: 39
4437d0: 39
443681: 39
40228b: 39
443883: 39
443940: 39
458303: 39
4d8100: 39
445941: 39
419b41: 40
4c8ca4: 40
4d7981: 40
4c95ff: 40
4d7ac0: 40
417dd0: 40
60bdc3: 40
4d79c1: 40
476250: 40
609715: 40
4589d0: 40
4d7a70: 40
4d6600: 41
4ce081: 41
48bd81: 41
4ba4c4: 41
4bc201: 41
401681: 41
60ba90: 41
4c6c00: 41
60c600: 41
4bf7bb: 41
60a502: 41
4016e8: 41
479720: 41
4c75c1: 42
4c7f86: 42
4c6701: 42
457d76: 42
4c6741: 42
4c66f9: 42
457c50: 42
4d7eec: 42
4d7e40: 42
479350: 42
457d09: 42
4c6632: 42
411301: 42
5f0741: 42
4c7f65: 42
4c75b9: 42
4d7f01: 42
457d84: 42
4d8010: 42
4c664e: 42
60bb50: 42
4ca2e6: 42
457cd8: 42
608e40: 43
60c110: 43
60c500: 43
60c230: 43
428640: 43
60b9f0: 43
60c960: 43
42868c: 43
428610: 43
60ba41: 43
60ae82: 43
420c80: 43
47a209: 44
4bdd02: 44
60ae47: 44
477050: 44
60bb80: 44
4d6238: 44
60a163: 44
4c4db3: 44
479541: 45
4ca86d: 45
479640: 45
4783b3: 45
45b180: 45
4796cb: 45
60c540: 45
60c530: 45
458292: 45
4795f0: 45
479405: 45
46712d: 45
47be0e: 45
476242: 45
479600: 45
60ae20: 45
479584: 45
47824d: 45
4a7801: 45
4d7b80: 45
478202: 45
4bc2bf: 45
479536: 45
49c8c9: 46
4a8640: 46
49cc81: 46
420d03: 46
4a8590: 46
420c6b: 46
4a8700: 46
45b3c0: 46
47ad13: 46
499441: 46
4d5a4f: 46
4bba42: 47
50fe00: 47
4d7bc0: 47
4c4dc2: 47
60c242: 47
4d7c04: 47
4cb1c6: 47
478298: 47
4d8d08: 48
4cb1a8: 48
47840e: 48
4bba37: 48
60a17a: 48
4bb95b: 49
4782c3: 49
41bc90: 49
4aff67: 50
4c24a5: 50
46c721: 50
4a844a: 50
4b9401: 50
4cb4c0: 50
4ca7cc: 50
50fb03: 51
608c97: 51
4bb900: 51
4c23d1: 51
465687: 51
457405: 51
4d3142: 51
419904: 51
419a6c: 51
4cad37: 51
45b20e: 52
4024a2: 52
41bb9b: 52
4c56c7: 52
60c700: 52
47bea8: 52
4bedc0: 52
4b85c0: 52
4bc2c1: 52
41bbc3: 52
4b0501: 53
4199a3: 53
4b159e: 53
5fa530: 53
49f6f5: 53
4b03d0: 53
4d8a03: 53
4b15f5: 53
419ac0: 53
4bb337: 53
5f0bb0: 53
4a7984: 53
4a8513: 53
4a7544: 53
4b0403: 53
4b8a02: 53
4aff80: 53
4a6fc1: 53
419a82: 53
49c710: 53
60c370: 53
4198d0: 53
4b1471: 53
419941: 53
4ad3e0: 54
4781c2: 54
4cfb26: 54
4793d1: 54
5fa230: 54
4c6244: 55
478303: 55
4a8550: 55
4783e6: 55
4beda9: 55
476629: 55
4cb4a7: 56
4d5cc3: 56
4a7841: 56
4210ce: 56
5fa570: 56
467c44: 57
47c8c0: 57
467586: 57
4675c3: 57
40275b: 57
4c595a: 57
467cc0: 57
467c81: 57
467bd0: 57
4678b2: 57
467805: 57
4bc337: 57
4bd481: 57
4d7370: 57
467bbb: 57
4678c4: 57
467741: 57
4d3f22: 57
478180: 57
41ae4b: 57
467654: 57
47bb41: 57
47bb03: 57
50fe3b: 58
4c1d06: 58
4c45ff: 59
46cee3: 59
609b91: 59
60c940: 60
4573a0: 60
4ca140: 60
459d4d: 60
60bf90: 60
5ef202: 60
459e94: 60
4c2580: 60
467543: 60
5fa245: 60
50b021: 60
60a1c6: 61
4ba401: 61
4cc9c0: 61
48cdb4: 61
4c5c45: 62
459deb: 62
4582c3: 62
465a00: 62
4ccefc: 62
4c5a5f: 62
4c7a85: 62
459d81: 62
50fe90: 62
4d6448: 62
4d6482: 62
48cd00: 62
60c170: 63
475f82: 63
4d90ca: 63
4ca922: 63
4ce280: 63
421520: 63
464737: 63
41b153: 63
4c6200: 63
459cc3: 63
41b040: 63
459d01: 63
41b003: 63
45b102: 63
60a2c0: 63
465106: 64
60bfb0: 64
4650c5: 64
48c0c1: 64
465140: 64
465040: 64
60bdb0: 64
464fc1: 64
4c2496: 64
4b9641: 64
4c22d7: 64
465183: 64
465000: 64
465085: 64
4cd255: 65
4659c1: 65
4cd470: 65
47bac1: 65
45b089: 65
5f1fd0: 65
4cab42: 65
60bfc3: 65
459c9a: 66
467498: 66
459c20: 66
459c41: 66
4bd44d: 66
47aa3d: 66
427a42: 66
459ec1: 66
4bdc86: 66
4bba47: 66
50fc30: 66
46c341: 67
609ea6: 67
4cfac0: 67
466d5b: 67
45aa40: 67
41ad83: 68
45de57: 68
4c6513: 68
46c602: 68
60bdd0: 68
4d8e5d: 68
47c880: 68
41adc0: 68
4cb652: 68
4c7816: 69
4bee01: 69
46cfc1: 69
4bb481: 69
41ad76: 69
467383: 69
4cf881: 69
467350: 69
418b65: 69
608bc2: 69
4c64e5: 69
4d3dc0: 69
4bb27c: 69
4765e3: 70
41b1af: 70
47aa40: 70
41ac40: 71
4c4504: 71
5f07d1: 71
4cab22: 71
4cfc58: 71
4c48c2: 72
48cc03: 72
4d7e00: 72
4c48ba: 72
5f0841: 72
60a202: 72
4d7d90: 72
4d3e00: 72
418bac: 72
4bc1c4: 73
5f7810: 73
4ca84a: 73
4c7ef6: 73
60c980: 73
47be82: 73
4caaea: 73
46cdbc: 73
408d91: 73
5f7844: 73
408d41: 73
4ca841: 73
4d07d6: 74
465707: 74
4c490e: 74
4d7dd8: 74
4ca802: 74
5f0781: 74
47bbfe: 74
4d1cc1: 75
4573c1: 75
4c7804: 76
60bbc0: 76
46cc03: 76
46cbc5: 76
46ca82: 76
4bc1b0: 76
4c4e03: 76
46cc65: 76
46ca4e: 76
4cb56d: 76
4cb523: 76
50fd3d: 76
4b9604: 76
47b344: 76
45aa02: 76
47b339: 76
46cbb1: 76
418ac1: 76
46ce0b: 76
4b9681: 76
421550: 76
4c462c: 76
4c44db: 76
46cdc2: 76
46cc80: 76
46ccc0: 76
60c183: 77
46cf40: 77
4ca681: 77
45de86: 77
408cca: 77
47b483: 77
4d5786: 77
4c5a0a: 77
5f0760: 77
47ad94: 77
60c190: 77
41ae01: 77
4c464a: 77
408c81: 77
46596a: 78
47b468: 78
41a480: 78
475f40: 78
46cf82: 78
45a884: 78
4d16b0: 78
465882: 78
4d908c: 78
4658de: 78
4d9100: 79
465563: 79
4d8b44: 79
479f98: 79
402487: 79
4c574e: 79
47a229: 79
60a285: 79
60bdf0: 79
457101: 80
4c622a: 80
45a842: 80
4bbdc2: 80
4bd38a: 80
512350: 80
46ce42: 80
512382: 80
45a9f9: 80
45ddc0: 80
4bbd82: 81
41c650: 81
4285e0: 81
45a702: 81
4c59f1: 81
45a685: 81
4214a0: 81
479ec3: 81
479ded: 81
45a5c6: 81
60c580: 81
479f5d: 81
45a813: 81
45a6c3: 81
45a761: 81
4dadea: 81
45a781: 81
45a671: 81
428602: 81
45a580: 81
46cf00: 81
45a7c3: 81
4bbf63: 82
50fec1: 82
4a8482: 82
4c6e78: 82
4d7d30: 82
60a4c0: 82
4c54d2: 82
476626: 82
60c930: 82
4d8b20: 82
5f1f60: 82
4c8f4e: 83
4c4804: 83
4c6e80: 83
467406: 83
4673c3: 83
4989c0: 83
467500: 83
467448: 83
4c5503: 83
4d7c43: 83
4c47ff: 83
59f040: 84
59f020: 84
47aaac: 84
457343: 84
4c4444: 84
4214c0: 84
4674c3: 84
4cec10: 85
465981: 85
4cc920: 85
412243: 85
4c7a80: 85
4a83f0: 85
4a8402: 85
4ba9ac: 85
465874: 85
4a84c3: 86
609902: 86
46c5f7: 86
47ab72: 87
59f083: 87
4bc22c: 87
606801: 87
4d1d7a: 87
462dc3: 88
4699c2: 88
48ccec: 88
469a02: 88
60c7a0: 88
4c1d02: 89
5fac20: 89
4bb282: 89
4c4367: 91
417441: 91
48cbc4: 91
402780: 91
417390: 91
4bc0ea: 91
4172c0: 91
417409: 91
4172a0: 91
417301: 91
469c42: 92
469a40: 92
469f13: 92
469b80: 92
4bc101: 92
401790: 92
4c6ac1: 92
4bbd42: 92
4120c1: 92
469ed5: 92
469eb1: 92
4016c2: 93
46cb3b: 93
47b1c3: 93
4210c0: 93
4b8d16: 93
4b8c00: 93
40168d: 93
4cbc43: 94
411d79: 94
464f01: 94
48c0b8: 94
4989b0: 94
4cb581: 94
4d26e1: 94
464ec2: 94
4bbfb2: 95
469d81: 95
469b79: 95
464dee: 95
469c01: 95
4d5a57: 95
4dc4c0: 96
4638d7: 96
463744: 96
463359: 96
4dc2d8: 96
463182: 96
4630c1: 96
463900: 96
462ec0: 96
462fc1: 96
463141: 96
469bc6: 96
463546: 96
462f04: 96
4dc506: 96
463109: 96
462f98: 96
46300c: 96
4cc530: 96
463083: 96
462e80: 96
4635ea: 96
41afc8: 96
463652: 96
4cbcc3: 96
4dc4b8: 96
479cc3: 96
5f1742: 96
463503: 96
463381: 96
4bb02c: 96
463055: 96
4631c0: 96
4dc180: 97
4597ce: 97
4cfa43: 97
4c5841: 97
459800: 97
5f0a80: 97
4cb34d: 97
4dc16e: 97
4dc0e0: 97
4ba9c0: 97
465240: 98
46523b: 98
47acc1: 98
4c5601: 98
4bb8f7: 99
4cccc5: 99
4d6652: 99
45b202: 99
464e90: 99
4c55d1: 99
608e01: 99
4d7c10: 99
4d2550: 100
459742: 100
4596e0: 100
4d2702: 100
4d2637: 100
4d28fd: 100
4d2903: 100
4d2580: 100
459701: 100
49ce80: 100
4d29d3: 100
4d29b0: 100
4d2b13: 100
462d10: 101
4c6aae: 101
4ba95e: 101
469d53: 101
4d8fb5: 101
5ef1c3: 101
4cf582: 102
427d70: 102
4dac80: 102
478cdb: 102
4d1402: 102
476201: 102
48bfd0: 103
4268e0: 103
48c702: 103
48bf10: 103
426909: 103
48c002: 103
41a682: 103
469c80: 103
60c1b0: 103
4c73bd: 103
46c7d0: 103
469ae9: 103
462d9f: 104
462d41: 104
4c437f: 104
4c61f6: 104
469980: 104
5f171d: 104
46ee82: 104
46c410: 104
5f05c1: 105
401700: 105
48cac0: 105
4d5860: 106
46d0da: 106
60c560: 107
4d63ce: 107
45dd90: 108
4c1d15: 108
4c7a6a: 108
609a20: 108
478d3b: 108
60bc30: 109
462e23: 109
478de6: 109
4d1d1e: 109
478e03: 109
478d45: 109
50fde3: 110
60bbf0: 110
45b175: 110
47bbe4: 110
41af40: 110
45b030: 111
427d3e: 111
4cfa69: 111
4207e0: 111
4ba7ab: 111
48c98e: 111
48c740: 111
5ee91a: 112
4bd3e0: 112
412100: 112
402501: 112
49ccf1: 112
462e41: 112
45b040: 113
4c73c2: 113
4d5803: 113
420841: 113
47ba09: 113
4bce0f: 114
4b9d2d: 114
476140: 114
4bc240: 114
46467c: 114
5ee870: 114
5eea00: 115
4d421d: 115
4c4d06: 115
461640: 115
5f0b00: 116
5ee8c0: 116
5ee962: 116
5ee881: 116
4d6443: 116
464fa9: 116
463e01: 117
5ee9c2: 117
5ee980: 117
461601: 117
4cfa83: 117
411d80: 117
609991: 117
401747: 117
4c4c15: 118
4bbaaa: 118
47b9c0: 119
60a240: 119
463e92: 120
45c318: 120
4a86c2: 120
4615d0: 120
47be02: 120
4bb840: 121
609ec1: 121
420800: 121
60c390: 121
4cd280: 121
4d6367: 121
4bd340: 121
48cd81: 122
4bd2b0: 122
4d1e00: 123
47a586: 123
49c349: 123
4d17a5: 123
47c463: 124
4ca7c1: 124
47c381: 124
46d650: 125
4d1dd7: 125
47bce0: 125
4ca780: 125
4bb2c0: 126
47b940: 126
4cc620: 127
4c483e: 127
48cd7c: 127
4d5e74: 127
4d1044: 128
4d5b56: 128
4bc7ce: 128
50aff0: 128
4bd2c0: 129
464403: 129
419638: 129
46d6aa: 129
4d40fe: 129
4c6e41: 130
463d19: 130
4d4101: 130
4d0701: 131
402444: 131
4023c0: 131
4ca2de: 132
4d4045: 132
4d4010: 132
40164f: 133
457304: 133
47b52f: 133
461680: 133
477e00: 134
46c802: 136
4ca28f: 136
463cc0: 136
476fb0: 136
4c7843: 136
4c6381: 136
4c79b7: 136
48c44a: 136
4ca2d0: 137
45acd6: 137
4c5c59: 137
477040: 137
464441: 137
48bd40: 138
4dd380: 138
408d07: 139
4d648a: 139
4c4b00: 140
4dcd80: 140
464944: 141
4c77c7: 141
427bea: 141
4d1c78: 141
4dd404: 141
4bee5a: 142
48cc30: 142
47b3c3: 142
457670: 142
4d17c2: 143
463e30: 143
47bd41: 143
4bda83: 143
4c775f: 143
46eda2: 143
4ca688: 144
427c3e: 144
5f0700: 144
47c357: 144
4cc60a: 144
47a558: 144
4cb482: 144
48bd21: 144
4d16c2: 144
4ca641: 145
427c41: 145
477fb8: 145
4c6262: 145
4764e0: 145
4ca1c1: 145
477d60: 145
47bdf0: 145
4643d0: 145
478601: 146
465786: 146
45aa60: 146
45ad01: 146
457ae6: 147
4576c3: 147
4c64a1: 147
457710: 147
457685: 147
4646c1: 147
5fac41: 147
45b1a0: 147
457ab8: 147
457747: 147
48cc46: 148
45ab84: 148
5facc1: 148
4cc649: 148
4c5901: 149
4c5ac4: 149
4cd450: 149
4bd310: 149
4ba636: 149
49cf70: 149
464e03: 150
4c9700: 150
4279ff: 150
47bc41: 150
47bedb: 150
4ba880: 151
4cb3c1: 151
4c5481: 151
41a483: 151
4dae84: 151
476e01: 152
4bf7c2: 152
418a04: 153
419600: 153
418b42: 153
4d1a50: 153
427bac: 153
465455: 153
4c4841: 153
48bde8: 154
4d1c83: 154
49cc00: 154
473af0: 154
427943: 156
427900: 156
4d1a81: 156
427981: 156
402581: 156
466d63: 156
49cb80: 156
465680: 156
4d8f52: 156
4c4af7: 156
427a03: 156
4d1faa: 156
427c83: 156
47ae02: 156
4ba642: 156
4ccc8c: 156
48c3c1: 157
475f10: 157
464681: 157
4d5a16: 157
609910: 158
4c5478: 158
4cfc71: 158
464980: 158
4bf8ae: 159
412204: 159
4d8fb8: 159
6098c3: 160
50fcc1: 160
4c5b53: 160
4c5c03: 160
47aa04: 160
4db243: 160
45ac02: 160
49ce60: 160
606860: 160
4c594e: 161
47be53: 161
467206: 161
4bd958: 162
47bf03: 162
4c5c80: 163
4bb501: 163
45aca3: 163
4c6404: 163
48c25a: 164
4c4981: 164
4cd273: 164
47acf6: 165
4bacb7: 165
4d18c8: 165
47bd03: 165
49ca6e: 166
421080: 166
4c4993: 166
4d1944: 166
408c5a: 167
4d57c4: 167
46e9d9: 167
47acb1: 167
412090: 167
47bc82: 168
4c5082: 168
408da8: 169
6099c1: 169
4d8a87: 169
45b1dc: 169
45abc0: 170
45ab11: 171
4bd983: 172
4cf5d4: 172
4cec42: 173
48c490: 173
4c495a: 173
4ca740: 173
4c4384: 173
5ef20a: 174
50fc40: 175
4ba7c2: 176
4ba279: 177
45de02: 177
46edf0: 177
4c4ff9: 178
469700: 178
46ce30: 178
479b36: 178
4648d9: 179
4bb341: 179
45ab43: 179
45aadd: 179
4bf5f3: 179
473c41: 179
457db0: 180
45aa80: 180
50fd01: 180
4766c9: 181
498cc2: 181
4bb472: 181
4c4da4: 181
4d6e84: 182
473c00: 182
48bcd0: 182
478150: 182
476c65: 183
476c06: 183
4db239: 183
47ba82: 183
465560: 183
4785f0: 184
476bc3: 184
4791a0: 184
4cd228: 185
48c3b0: 185
41941e: 185
4bb7ce: 185
4ba841: 186
4ca700: 186
4027d0: 186
48d486: 186
48c340: 187
411740: 187
4baa80: 188
464929: 188
47cd3a: 188
457dc6: 188
465662: 189
465614: 189
4bb6b9: 190
45b741: 190
47a260: 190
46e8c0: 191
46e909: 191
4bc142: 191
4c9e06: 191
4cc507: 191
4785c1: 192
4bb800: 192
4698b2: 192
4570c3: 192
4b968b: 193
476485: 193
4bb6c1: 193
49ce24: 194
476941: 194
60bfd0: 194
419630: 194
467105: 194
476854: 195
411844: 195
49cc78: 195
6098e0: 195
476918: 195
606902: 195
4baa6f: 196
479716: 196
477d9c: 196
408a40: 196
4d5f81: 196
45b878: 196
46e94e: 197
464483: 197
4cb469: 197
4cbe81: 197
46ee45: 197
4ba807: 198
50fc79: 198
418dd7: 199
4baf43: 200
4d63c0: 200
4c63c1: 201
4c64c1: 201
499404: 201
47bc02: 202
4ca113: 202
48c981: 203
467250: 203
4c62b3: 204
47b360: 205
48deab: 205
408bc2: 205
4bb563: 206
4bb4f6: 206
463dcc: 207
47b60c: 207
4c62c0: 207
4670d0: 207
4cfa06: 207
4990c0: 207
464703: 208
45fe82: 208
47a242: 208
4645c2: 208
46577f: 208
41a780: 208
4dadc4: 208
48cdc1: 208
46c8c1: 208
465713: 208
4dcdc1: 209
4c967c: 209
4600cb: 209
4c50c4: 210
4bb726: 210
4c5800: 210
4c2353: 210
50fd40: 210
45734c: 211
4d6240: 211
4672a9: 211
4ca183: 212
48cadc: 212
4672c2: 212
4cf759: 212
4cec93: 212
4ba981: 212
465802: 213
4c9683: 213
411780: 214
4bb042: 214
48cc82: 214
5f0cc0: 216
47c3c0: 216
48c750: 216
48be00: 216
47ac70: 216
4c96cb: 216
45b780: 217
47c961: 217
46d802: 217
48dc78: 217
48d0c2: 217
48c114: 218
4cd482: 218
49928a: 218
5f0c80: 219
6099d0: 219
48c710: 219
4c9dfe: 219
4d6202: 219
4c6c99: 220
478543: 221
4ca610: 221
48dc10: 221
4c5001: 221
4ca5a0: 221
60991e: 222
499320: 222
408c01: 222
48bc03: 223
4ca069: 223
4c4be0: 223
478482: 223
48ca40: 223
4c54c1: 223
467304: 224
4c7ef9: 224
4ca5c1: 224
476b36: 224
46ca01: 225
4c2753: 225
4c5982: 225
4c5040: 226
478c49: 226
412041: 226
4ba442: 226
45c245: 226
4d13ff: 227
4ba9d0: 227
4d58e1: 229
479c56: 229
5f0830: 230
47c900: 230
4cce59: 230
46714f: 230
4ba43a: 231
479840: 231
476080: 231
46d6c0: 232
4c58c3: 232
499080: 232
476707: 232
4c57c9: 232
50fc84: 232
4118b5: 232
47aa6f: 232
46d703: 233
418df1: 233
46d6b2: 233
4d76a0: 233
4ca35d: 234
4ca6c1: 235
46b0c1: 236
48c282: 237
411a5d: 237
49cf81: 238
45b887: 238
499279: 238
48c5cc: 238
49c883: 239
49a71a: 240
45c210: 240
499464: 241
4cb645: 241
5f0d08: 241
408dc0: 241
4d8f00: 241
4bc602: 242
4dd2c1: 242
478570: 242
4d6e82: 242
460080: 242
4ba502: 244
4d1194: 244
4655ca: 244
4ccb69: 244
460101: 245
419682: 245
49c8c3: 245
418b83: 245
419642: 245
4b948a: 245
4739c0: 246
499481: 246
457e16: 246
4c248b: 247
457e41: 247
478bc8: 247
4cd780: 247
4bb277: 247
478b00: 248
4dac79: 249
4027c3: 249
46d0c1: 249
477f45: 249
4c282e: 250
4ce0f0: 250
4b8d73: 250
4cc640: 251
41a44c: 251
45b342: 252
40271a: 252
46d7c6: 252
4cd7f1: 252
408a83: 253
478586: 253
408ac3: 253
4d0612: 254
48c1d2: 254
49cc89: 254
4d6e4e: 255
4ce394: 255
4dd2b0: 256
477dc2: 256
47c785: 257
4ccdaf: 259
4b9d32: 259
412142: 259
4d62b3: 259
4ccdc1: 259
45944d: 260
48cba0: 260
473a43: 260
4dd324: 260
464746: 260
4d5680: 261
4995c3: 261
41ae80: 261
478b88: 261
4c5885: 262
4c2602: 262
4bc122: 264
4dce45: 264
478d00: 264
48c7be: 265
478450: 265
473b80: 266
4189fa: 266
47a205: 266
464502: 266
48c8bc: 267
5ef440: 267
48ba70: 268
465582: 268
464580: 268
60c5a0: 268
48bbc0: 268
4996c0: 268
48bb81: 269
49968f: 269
609740: 270
5ef420: 270
4cc881: 270
476840: 271
499584: 271
418c09: 271
4cb2da: 271
49c870: 271
4dce34: 273
476900: 274
4c2381: 274
4c2865: 275
47850b: 275
48c8c4: 275
4b9445: 275
4d3246: 275
4c2342: 275
4ba998: 276
4bb3c6: 277
4db291: 278
609820: 278
4cbe73: 278
4c5b80: 278
5ef0c0: 279
463e42: 279
47642b: 279
60c3a0: 279
4bac41: 279
60c9a0: 279
4792a0: 280
4d10c0: 280
4572a7: 280
469781: 281
4d9780: 281
499500: 281
5ef101: 282
41a697: 282
473985: 282
4ba996: 283
49c941: 283
5f1f00: 284
5ef504: 284
49c900: 285
4784c2: 285
48c502: 285
4c4fb3: 285
476966: 286
4c9fb7: 286
49cb50: 286
47c502: 286
50fbd3: 287
48c9c2: 287
4d3204: 287
4698c3: 287
48c1b0: 288
420a03: 288
48be50: 289
606910: 289
4ca360: 289
48dc81: 289
4cb6e4: 291
60c1c0: 291
4b9a04: 292
40a504: 292
45b2e0: 292
45b31c: 292
4bb2b7: 292
40a5e4: 293
477081: 293
4ba357: 293
5f0c41: 294
4cb4c7: 295
5f0482: 295
4cc9ec: 296
46c886: 297
48d085: 297
48ca00: 297
479316: 297
45fed0: 297
463a67: 298
4c2665: 298
47c5a0: 298
46c8e9: 299
60a16f: 299
4b99e0: 299
418931: 301
45b009: 301
476ec0: 301
47c5c2: 302
420860: 302
4bc154: 302
4d758d: 303
41a3c0: 304
4644c4: 304
49ca88: 305
48c4c4: 305
45c313: 305
4dd340: 306
412581: 306
4ce105: 306
47c492: 307
5f31c0: 307
4b9de8: 308
46c899: 308
4698e0: 308
48c7c1: 308
47b8e0: 309
4c9eb7: 309
5f1f40: 309
4dad84: 309
4c9ec0: 312
40a4d0: 312
4b9c69: 312
418ea9: 313
418c00: 314
46cb33: 315
4671c7: 315
41a395: 316
48c842: 316
479b41: 316
5f0940: 316
411a31: 316
40a686: 316
47d950: 317
48c95c: 317
48caac: 318
47c6c0: 318
47c704: 318
47c6a7: 318
4d1082: 318
48cb41: 318
4db2c0: 319
4ce178: 319
40a602: 319
40a643: 319
45fe00: 320
4c5bf1: 321
48c680: 321
4c45c4: 322
4024f0: 322
5f0a7c: 322
4ca986: 322
401844: 322
4daf98: 322
47b244: 323
4c9eca: 323
48c641: 324
5f30cb: 324
459423: 324
48c610: 324
4d31e6: 324
4196c3: 324
48d940: 324
45fe44: 324
417f43: 324
47c74c: 324
48c6c4: 324
411942: 324
47c4c2: 325
459386: 326
4570b0: 326
46d203: 326
4697c2: 327
47b20c: 327
4c6b9e: 327
4d04b0: 327
48bac4: 327
48ba81: 327
463945: 328
4dafc0: 328
4daf02: 328
4daf40: 328
4daec0: 328
48d6e0: 328
48c810: 328
40a582: 329
45c281: 329
6099a2: 329
476581: 329
48d2d7: 329
5f092f: 329
48d303: 330
46975d: 331
4696c4: 331
46c405: 331
5ef1d5: 331
48de79: 331
417e40: 332
4cfc02: 332
5f05c6: 332
5f3080: 333
48c540: 333
5ef083: 333
469849: 334
47c55d: 334
48d640: 334
467182: 334
4b96a2: 334
41193a: 334
48d610: 334
48d710: 334
4b9d46: 334
47c601: 334
4cbc8a: 335
46456c: 335
4bafda: 336
4ba381: 336
48df85: 336
473a03: 336
47a9ff: 336
4cd94c: 336
479c4c: 336
463910: 337
476a5c: 337
4766d0: 337
466c70: 337
45af90: 337
498c59: 338
415002: 338
48bb49: 339
48cb33: 339
41a340: 339
48d741: 339
415341: 339
4cd881: 339
40a543: 340
4b99b7: 340
469682: 340
4cd841: 340
4cd800: 340
4cd600: 340
4cd679: 340
469807: 340
48dec0: 340
466d15: 340
4ccf01: 341
4ccb02: 341
4cce56: 341
4d56f4: 341
4ccb46: 341
4ccaba: 341
4ccac2: 341
415318: 341
5f1de8: 343
48d070: 343
4bc5c0: 343
48df75: 343
473941: 344
4d8f1e: 345
4b9e84: 345
47678e: 345
5f2dca: 345
4d166a: 347
466cc0: 347
4ba959: 347
4ca8c0: 348
47b410: 348
47d243: 348
46ee04: 349
40a80f: 350
4d114d: 350
401883: 350
4c9f07: 350
46c2c6: 351
4c4e80: 351
60685b: 351
5f1d44: 351
5f2d40: 351
4c7af8: 352
4790c3: 352
476701: 353
5f0c1c: 353
49cbf0: 354
41a401: 354
469640: 354
469620: 354
457201: 355
4d6344: 355
4cb60f: 356
45737c: 356
4ce343: 357
473901: 357
4d105d: 358
4dccc1: 358
45afcc: 359
41a504: 359
45ff33: 359
479305: 360
459370: 361
4ce001: 361
4760e0: 361
5f0450: 362
420942: 362
5efad5: 362
478cc2: 362
402574: 363
4d1184: 364
4c458c: 364
4639a9: 364
4d0630: 364
4c9fc2: 366
5f3100: 368
5f0601: 368
4994c1: 369
[...]
4be722: 3
4768ce: 3
458a66: 3
4b8c00: 3
47b6c3: 3
48be00: 3
524781: 3
4be6c2: 3
427fde: 3
45a52b: 3
45982d: 3
5de440: 3
46fec1: 3
49cc72: 3
4be443: 3
4be404: 3
46073d: 3
467241: 3
46ff00: 3
4be3bb: 3
499481: 3
45acd6: 3
4b0cc5: 3
4b095f: 3
5f7810: 3
4be3c2: 3
47002f: 3
60ad03: 3
4670d0: 3
4a4581: 3
4d0908: 3
4676f7: 3
476c97: 3
4df11d: 3
4989b0: 3
524281: 3
46fe60: 3
48ccec: 3
46f184: 3
4111a7: 3
4be482: 3
406f81: 3
608c82: 3
5ee980: 3
4a7043: 3
46c2c6: 3
4615d0: 3
49bc41: 3
4bbac1: 3
4be484: 3
5fac01: 3
457cd8: 3
46d9a2: 3
4782c3: 3
478d00: 3
458bd2: 3
46c382: 3
606910: 3
478c49: 3
476d41: 3
608e21: 3
427ac1: 3
608ee1: 3
45b030: 3
47db18: 3
41adc0: 3
4b0017: 3
462342: 3
459d4d: 3
609dbc: 3
445a42: 3
419642: 3
41af5d: 3
49c349: 3
467182: 3
46c602: 3
4be8b1: 3
4a7801: 3
4be846: 3
41a483: 3
473985: 3
4be81f: 3
45aa60: 3
63319d: 3
4e2aec: 3
4d91c0: 3
5de5c8: 3
4bf71b: 3
4b6e41: 3
46efc2: 3
50f56d: 3
4bda83: 3
5d8680: 3
4bd403: 3
473b80: 3
4d89c6: 3
479fb1: 3
4b397d: 3
59f083: 3
46f140: 3
47dd9e: 3
4ac38d: 3
4d4010: 3
4bbec6: 3
459f4a: 3
427bea: 3
417e40: 3
46d650: 3
4a4501: 3
476b84: 3
457415: 3
609e4c: 3
462285: 3
4d63c0: 3
46d840: 3
465a00: 3
478744: 3
4ca523: 3
4c48c2: 3
4d5c88: 3
4c3843: 3
45afcc: 3
47bf03: 3
4d5dee: 3
60b105: 3
45b416: 3
478f82: 3
4b9002: 3
632e40: 3
4daa00: 3
4738d6: 3
524241: 3
47a746: 3
46fa89: 3
4ad142: 3
476bc3: 3
46f505: 3
41364c: 3
45a5c6: 3
4573bd: 3
4b9565: 3
4abf42: 3
4a5257: 3
492550: 3
4791c2: 3
4285e0: 3
4d81b0: 3
5ded01: 3
4cd228: 3
49ae91: 3
41a590: 3
4a8513: 3
45b089: 3
4d3182: 3
469980: 3
48c1d2: 3
505f07: 3
505ec1: 3
60c900: 3
459243: 3
4df202: 3
45b878: 3
473c00: 3
5f1d20: 3
47abba: 3
412b10: 3
420d03: 3
5e2303: 3
4792a0: 3
524540: 3
462ccc: 3
401cfa: 3
458590: 3
476572: 3
4d64c5: 3
46cb42: 3
4649c4: 3
401fc3: 3
49a55f: 3
4b9b7b: 3
4cd542: 3
50fb4b: 3
45ab84: 3
506008: 3
469620: 3
4210ce: 3
4ca8c0: 3
401b40: 3
41a540: 3
49b935: 3
4700b0: 3
4d92e6: 3
4d4101: 3
4dde37: 3
478e50: 3
633230: 3
45b806: 3
47b4d9: 3
479040: 3
5de9db: 3
41d3ac: 3
4cb1a8: 3
4cab42: 3
49d1b0: 3
45b342: 3
49bd45: 3
4bba37: 3
47d9b0: 3
49f400: 3
402574: 3
4baf43: 3
4438c9: 3
470041: 3
4700c0: 3
5fa383: 3
4b8c43: 3
41ae42: 3
476de4: 3
5f2d82: 3
462334: 3
42839a: 3
42858e: 3
418a80: 3
4bf6c0: 3
609cb0: 3
46f247: 3
5f0b00: 3
4ce105: 3
4bcf68: 3
4a2a44: 3
4bbb7f: 3
4ada01: 3
4b9d32: 3
47acf6: 3
4bf8ae: 3
41d361: 3
41d369: 3
4dc180: 3
478b88: 3
420800: 3
60bf38: 3
46f310: 3
47a242: 3
4c4070: 3
47d143: 3
4a8c95: 3
49e7d4: 3
4c3b02: 3
467cc0: 3
4269c2: 3
401d8d: 3
4c3ac0: 3
4a4261: 3
463dcc: 3
4797fd: 3
4be000: 3
524500: 3
4c3e10: 3
499320: 3
47db6b: 3
4e0aff: 3
499404: 3
5e4880: 3
608f42: 3
419002: 3
4a73c3: 3
47d3c0: 3
4c75b9: 3
499279: 3
4ad721: 3
45b240: 3
47dd00: 3
4d1a81: 3
608d04: 3
484280: 3
49928a: 3
4b9a04: 3
47ba09: 3
60bb90: 3
4b9de8: 3
608f04: 3
4a32a2: 3
49bb82: 3
469942: 3
4bb481: 3
4b6dc1: 3
45aa02: 3
4111aa: 3
49c870: 3
4c4af7: 3
4ce343: 3
459c9a: 3
4c3e40: 3
4a3f94: 3
470180: 3
461601: 3
50f845: 3
45b1dc: 3
49cfc0: 3
5dd144: 3
4b305a: 3
4a0481: 3
48be50: 3
419342: 3
4696c4: 3
49a4c3: 3
60be10: 3
418102: 3
477195: 3
60be2a: 3
46e470: 3
4d7c43: 3
4ca301: 3
40a5e4: 3
4990c0: 3
4a4782: 3
5d8b18: 3
47d2c1: 3
5ef044: 3
5ed2a0: 3
47b130: 3
49c883: 3
477114: 3
418d1a: 3
48e560: 3
4643d0: 3
47918d: 3
60b783: 3
479c02: 3
5dcc7f: 3
473c41: 3
492582: 3
45fe44: 3
469c80: 3
46f541: 3
4acd6f: 3
412090: 3
499441: 3
4a3f5f: 3
446084: 3
4b5950: 3
46d626: 3
484105: 3
41a4c6: 3
60be60: 3
478e03: 3
45b102: 3
4d0502: 3
469c14: 3
4a2d70: 3
60bc10: 3
60af87: 3
467204: 3
458d3d: 3
457101: 3
4b0804: 3
45ee01: 3
49b6c2: 3
4e0f0d: 3
4c4c02: 3
4d13ff: 3
48c610: 3
4110fb: 3
60a804: 3
523d83: 3
4a84fc: 3
402501: 3
5df3c0: 3
5f0786: 3
46c886: 3
473c81: 3
49cb50: 3
418a04: 3
49ca6e: 3
49ca88: 3
49cbf0: 3
49c900: 3
4adcc6: 3
4bb341: 3
4b22b5: 3
4a83f0: 3
45b34e: 3
4d8e35: 3
4d5730: 3
401879: 3
49cf70: 3
608e40: 3
45b2e0: 3
60ac83: 3
48d640: 3
4a3b40: 3
4b03d0: 3
49ce34: 3
49ce60: 3
4beb80: 3
60ac47: 3
4bd977: 3
4e2c96: 3
4a2480: 3
458ba5: 3
46c353: 3
5d882c: 3
463e42: 3
478f00: 3
476d82: 3
418acf: 3
4c4d41: 3
4ccb69: 3
4dc16e: 3
50fe3e: 3
41a780: 3
4279ff: 3
4dc960: 3
4d8010: 3
47aa84: 3
5f0cc0: 3
48bde8: 3
418ce5: 3
4c6004: 3
60a310: 3
4c60b1: 3
4b99b7: 3
4d5d1b: 3
461680: 3
4dfad0: 3
5df456: 3
479b36: 3
4d91bc: 3
4bb277: 3
48df85: 3
4dafc0: 3
4d750d: 3
41a7d0: 3
498a3d: 3
524803: 3
460d01: 3
6067e0: 3
45aff2: 3
4214c0: 3
4cd1c1: 3
417e00: 3
523bf4: 3
459d01: 3
44feb7: 3
45c245: 3
4ba002: 3
4c2348: 3
427a80: 3
50f46f: 3
41ae80: 3
4cc740: 3
5d8d41: 3
46d80b: 3
5dda90: 3
497a85: 3
465140: 3
4dfbc1: 3
49abc5: 3
4ba401: 3
401d01: 3
60c2c1: 3
5ee9c2: 3
424830: 3
4de2eb: 3
4a6502: 3
4c6100: 3
4cf901: 3
417301: 3
4073c1: 4
48d0c2: 4
41896f: 4
4c3981: 4
4cb1c6: 4
4c3960: 4
4ce65e: 4
4c43c8: 4
5fa230: 4
5f0760: 4
46cfd0: 4
411823: 4
47b1c3: 4
46d301: 4
4d1944: 4
49b881: 4
49b7f0: 4
406e02: 4
463b65: 4
60c040: 4
498c00: 4
49b802: 4
4d2e42: 4
60c600: 4
4a8842: 4
4cc5f5: 4
5fa245: 4
407399: 4
4570b0: 4
4c4400: 4
4d8a48: 4
46ce30: 4
60a1c2: 4
4ddb02: 4
4b9e5c: 4
5f7844: 4
47aa6f: 4
60bcd0: 4
46b153: 4
4cb980: 4
4c38c4: 4
4a8955: 4
4d16c2: 4
45b741: 4
609751: 4
45a443: 4
466d15: 4
5f2d24: 4
4798d4: 4
46487b: 4
4c5173: 4
5f04c7: 4
60c640: 4
41900e: 4
4d58bb: 4
4131f9: 4
46d184: 4
4a5b85: 4
60c270: 4
47650e: 4
4d89b0: 4
60ae4f: 4
478057: 4
402043: 4
47dc09: 4
45aff5: 4
4bb1c3: 4
401a80: 4
60bec1: 4
46b0c1: 4
4d8aa5: 4
5f0b5c: 4
473b02: 4
4a0940: 4
608b60: 4
4cb944: 4
4a0472: 4
47a205: 4
4c2401: 4
478488: 4
5f30e2: 4
47b583: 4
47ae41: 4
476e30: 4
4b9d46: 4
418c82: 4
4c4b00: 4
47678e: 4
4d6344: 4
6068c1: 4
45b5ff: 4
4b9702: 4
4b9445: 4
49b744: 4
45b887: 4
460e73: 4
5f0b79: 4
49b841: 4
47c842: 4
413682: 4
4a84a8: 4
46e9d9: 4
4d90f1: 4
4214a0: 4
407bca: 4
50f590: 4
41383e: 4
5f2600: 4
46ad80: 4
4195a0: 4
46d6aa: 4
60c4c0: 4
47d440: 4
5f05c6: 4
419630: 4
60a202: 4
60a17a: 4
4c4180: 4
4ccd09: 4
46e94e: 4
4cf68d: 4
4c77bb: 4
458bdd: 4
4c46bc: 4
608d0a: 4
5fa570: 4
6098b3: 4
401580: 4
4184e0: 4
4571d1: 4
4785d9: 4
46d203: 4
4cc5c0: 4
4a5e97: 4
4028c1: 4
45843d: 4
4c37c3: 4
499f44: 4
4b96c1: 4
47da58: 4
60c0d0: 4
4cfafd: 4
608c77: 4
413446: 4
60c8c0: 4
46c781: 4
418892: 4
41a504: 4
47aa3d: 4
4c3c41: 4
4a0843: 4
469900: 4
5f0a7c: 4
41b2d8: 4
478e81: 4
4cac83: 4
60a907: 4
50f5d1: 4
5f06c6: 4
4d9200: 4
4d648a: 4
4cb381: 4
424701: 4
477dc2: 4
4a0980: 4
47be53: 4
4c3eb1: 4
4d754e: 4
4adbe5: 4
4cd14d: 4
45b3c0: 4
4610a1: 4
47bdf0: 4
45919d: 4
5f0ac4: 4
412b66: 4
41b6c0: 4
46c984: 4
4d2550: 4
46444c: 4
5f3042: 4
41a401: 4
47bd03: 4
4c7f86: 4
418f82: 4
45da73: 4
4079c1: 4
473901: 4
46ee45: 4
60a2c0: 4
4dac79: 4
60a790: 4
4d6300: 4
5eea00: 4
4cba64: 4
4cbd04: 4
4cbd84: 4
4bb01f: 4
414f80: 4
4c5fea: 4
4a1182: 4
41a675: 4
41b1c0: 4
47bf8c: 4
4c7b06: 4
464435: 4
5ef1a9: 4
60bd80: 4
4c25f9: 4
4cf707: 4
47bfc1: 4
45b202: 4
45b780: 4
4d62da: 4
4c3a90: 4
608b81: 4
609b2c: 4
4d923c: 4
60ad87: 4
46cb33: 4
4c3d61: 4
476fc2: 4
45a2d1: 4
4df8df: 4
4dccb5: 4
402005: 4
46d140: 4
5ee975: 4
46f2c0: 4
5f1e39: 4
609715: 4
47ad13: 4
412571: 4
462c84: 4
4c8881: 4
4d3204: 4
47c900: 4
4658de: 4
4a5981: 4
609820: 4
5f0700: 4
476840: 4
4b9c85: 4
47aee9: 4
46eda2: 4
406def: 4
4b95cb: 4
60a285: 4
4c4e41: 4
48c810: 4
469d81: 4
413841: 4
47da31: 4
479305: 4
48deab: 4
608cb8: 4
4d9241: 4
4cd881: 4
4c3da9: 4
45b380: 4
4cd679: 4
4cb6e4: 4
4bb582: 4
5f3180: 4
5f2f68: 4
4e2b8c: 4
420995: 4
4dda70: 4
4dce34: 4
4dd340: 4
47cef6: 4
4d3246: 4
465884: 4
4ddbc5: 4
60ad9f: 4
4d7640: 4
5ef001: 4
4ccaf5: 4
4debef: 4
4c2270: 4
4cac0f: 4
4ce061: 4
47ce1d: 4
4da99a: 4
4d0564: 4
46c4c0: 4
60abc5: 4
4d8b44: 4
402801: 4
47b680: 4
60ba90: 4
421b01: 4
47a8b7: 4
60c6c0: 4
498c59: 4
5ee91a: 4
5f2d10: 4
41b635: 4
60ae57: 4
4a8981: 4
50f500: 4
60ba1f: 4
47a8c2: 4
47a857: 4
50f4f0: 4
4cb93f: 4
60bb10: 4
45ff33: 4
4cab87: 4
47b900: 4
48cb33: 4
4993d5: 4
498c99: 4
4ca922: 4
50faeb: 4
47a7e4: 4
609cf6: 4
4dab43: 4
4d9680: 4
5f1e90: 4
4137ec: 4
5f2dca: 4
4d8b80: 4
498580: 5
41b294: 5
4ce301: 5
41c680: 5
50f674: 5
47ae02: 5
46d351: 5
60ad9b: 5
4d06fe: 5
4bf701: 5
477173: 5
4b9c81: 5
46c440: 5
46c486: 5
4dd324: 5
5fac41: 5
47adf9: 5
60c350: 5
4d759c: 5
608b90: 5
46c2a0: 5
46e8c0: 5
4d0b30: 5
4cd273: 5
4c7ee3: 5
4c3900: 5
4dd2c1: 5
4cd7f1: 5
609e31: 5
4cd600: 5
5f0b30: 5
4bb190: 5
4cd17a: 5
41b300: 5
4dcbc0: 5
478071: 5
60ae47: 5
6068a0: 5
60c580: 5
46c944: 5
41bb00: 5
5fac92: 5
4d61e2: 5
4c48ba: 5
60c440: 5
47db20: 5
457304: 5
47ad94: 5
4dca30: 5
49f3ee: 5
4d5680: 5
4d9170: 5
609a20: 5
47b701: 5
47c7ad: 5
417441: 5
5f07a8: 5
47aa15: 5
477d60: 5
406b80: 5
5f0b40: 5
5f0b37: 5
4762c0: 5
5f25c0: 5
4bf6bd: 5
419682: 5
5fa2f0: 5
4b9c69: 5
60c370: 5
609ff1: 5
4136eb: 5
45b5c1: 5
5f2642: 5
4792c2: 5
4d3120: 5
4d63ab: 5
4d7efd: 5
4d7944: 5
47b229: 5
5ef083: 5
5efad5: 5
4cd3f0: 5
4d91f2: 5
479082: 5
476c06: 5
465879: 5
4d5e00: 5
4c23c2: 5
4d922e: 5
4ce280: 5
5fa304: 5
463945: 5
413286: 5
4d7ef4: 5
41915e: 5
4d8d08: 5
60c930: 5
46ce80: 5
47c961: 5
515470: 5
4246c2: 5
4c57b3: 5
609910: 5
47b64e: 5
479840: 5
4d0680: 5
4d6358: 5
4d04ec: 5
4d618e: 5
4d8b68: 5
4d5d36: 5
4ce0f0: 5
4b9fe8: 5
60a541: 5
46c3c1: 5
60c140: 5
463ac4: 5
473941: 5
5ee98b: 5
4769cd: 5
412b41: 5
473820: 5
60a00c: 5
4ca3e5: 5
60ada3: 5
411d80: 5
47b7a7: 5
60ab80: 5
4196c3: 5
4dd2b0: 5
60bf60: 5
4739ff: 5
47afc5: 5
5fabd0: 5
4de2c6: 5
60ada7: 5
47c9c2: 5
60b4e7: 5
4268e0: 5
46f2c9: 5
4c47ff: 5
5f2c20: 6
4d76c7: 6
4cc5ec: 6
4d7d30: 6
46e500: 6
411a31: 6
4208fc: 6
40a81d: 6
47d0bb: 6
4b4765: 6
47a6ca: 6
45b392: 6
478ff2: 6
41219f: 6
412142: 6
46d7c6: 6
5fa341: 6
47971b: 6
4dccc1: 6
4d63ce: 6
5fa282: 6
457fea: 6
609ea6: 6
476748: 6
5dcc86: 6
476900: 6
415341: 6
47a402: 6
411740: 6
4c5119: 6
609bf6: 6
60c480: 6
412204: 6
411703: 6
4a3081: 6
498a8a: 6
46d100: 6
60bd10: 6
4b98fb: 6
462dd0: 6
4a7819: 6
4121ff: 6
498a64: 6
498a4a: 6
4457d4: 6
60c840: 6
60adc5: 6
4d0837: 6
4de315: 6
60c390: 6
476aa0: 6
4a523a: 6
45de8d: 6
5fa258: 6
4e0b20: 6
498a76: 6
411a5d: 6
478703: 6
41a697: 6
41bb4d: 6
476db0: 6
4dcb01: 6
4a8901: 6
4de347: 6
4600e0: 6
498ba0: 6
4dd380: 6
4be628: 6
4a7816: 6
47a558: 6
6099a2: 6
457f0f: 6
400480: 6
621010: 6
4118c1: 6
4be5a3: 6
47c641: 6
411d79: 6
45b175: 6
6073c3: 6
4de285: 6
411844: 6
47d198: 6
411780: 6
45b72e: 6
4cd505: 6
4d5d51: 6
464883: 6
4457fc: 6
45818d: 6
44581e: 6
45a67c: 6
476037: 6
4b169c: 6
411942: 6
49ecf2: 6
4d3740: 6
479925: 6
476701: 6
458b0b: 6
4bdd2f: 6
4d57ca: 6
4003f0: 6
4bd2c0: 6
46f216: 6
47853c: 6
4116e0: 6
476581: 6
46cf82: 6
4de260: 6
60c800: 6
476821: 6
46d2fa: 6
476966: 6
4a859f: 6
412020: 6
41afcb: 6
457f80: 6
4da9a7: 6
4d646b: 6
473a03: 6
4d0bdc: 6
4bb108: 6
4118b5: 6
427f46: 6
4570c3: 6
41bcc5: 6
4d6427: 6
412100: 6
46737b: 6
5f1ec3: 6
47af42: 6
60c680: 6
5f1f00: 6
418b1d: 6
4d095e: 6
60c2f0: 6
4015a7: 6
4a0907: 6
609d11: 6
46d740: 6
457dc6: 6
4d6fc5: 6
4117c5: 6
46ee8f: 6
408a7f: 7
476681: 7
45b23a: 7
47aa50: 7
4644ea: 7
46c904: 7
4cc5d1: 7
4d1407: 7
4bafe5: 7
4d09c7: 7
60a0ac: 7
4bbd77: 7
60bc30: 7
41a363: 7
46ce42: 7
4be8e2: 7
4761f9: 7
4b0518: 7
4989d9: 7
4b94c5: 7
60bdb0: 7
47b180: 7
60c530: 7
4989dd: 7
609922: 7
609823: 7
4d8eab: 7
60a10e: 7
419b3b: 7
473832: 7
60beb0: 7
402015: 7
477ed0: 7
467171: 7
609ec1: 7
478b14: 7
47aa54: 7
5f171d: 7
469682: 7
60c2b0: 7
4a847b: 7
414a20: 7
4136ca: 8
4be3d3: 8
5f0c66: 8
60bf90: 8
5f0b10: 8
47b8ba: 8
6097e3: 8
5ef19f: 8
45fe94: 8
47b3d1: 8
4be9d5: 8
4cab37: 8
4003a0: 8
60bb50: 8
47b596: 8
609da1: 8
49ce86: 8
46fe99: 8
477dc5: 8
41afde: 8
4bdce5: 8
45710f: 8
4d8a5a: 8
457e4f: 8
4781ca: 8
5ee962: 8
418931: 8
47a9ff: 8
421a7d: 8
60bf30: 8
609b96: 8
457520: 9
479919: 9
465809: 9
47b9e0: 9
4570bf: 9
41a3ef: 9
4593c4: 9
41b003: 9
6068bd: 9
45aba2: 9
4581e6: 9
4deb7b: 9
4d9279: 9
4dd404: 9
4671ce: 9
45821a: 9
464910: 9
5f071f: 9
60c500: 9
60c700: 9
445787: 9
609aaf: 9
414983: 9
4d9000: 9
45aaa9: 9
46451d: 9
5f04b7: 9
60c320: 9
459386: 9
459c67: 9
4e05df: 9
445a27: 9
60c190: 9
464419: 9
4cc872: 9
60c170: 9
60ae53: 9
402081: 9
478632: 9
46cfbe: 9
60c110: 9
609c11: 9
4d6202: 9
4643f1: 10
4cc700: 10
46715f: 10
460177: 10
40159a: 10
609a91: 10
60c7a0: 10
609c91: 10
4c4c22: 10
5f0668: 10
49ce8a: 10
4df1f0: 10
6097d2: 10
5f0b06: 10
418be9: 10
4c6ba7: 10
4c43fd: 10
4baf4b: 10
4d6003: 10
60693b: 10
606840: 10
412b63: 10
4a84f0: 10
408e84: 10
4cc9b5: 10
401f44: 11
4644f3: 11
4c4e70: 11
50fb63: 11
459eb5: 11
60bbf0: 11
4d8ed9: 11
60c560: 11
4b9c6e: 11
4c6bb5: 11
60bfb0: 11
60a1f0: 11
479c21: 12
457136: 12
5f07c0: 12
41a3fc: 12
4bb039: 12
4cb3ec: 12
5f0b1b: 12
4766c9: 12
46d8a0: 12
50b025: 12
459c5d: 12
4a844a: 12
408a69: 12
4996cf: 12
460076: 12
417fb4: 12
408a76: 12
6098a2: 12
4658ef: 12
45b73c: 12
4baf72: 12
45b379: 12
60a56e: 12
4c5800: 12
45aa9e: 12
47dc0c: 12
419ad0: 12
45b02a: 12
60a546: 12
459c6b: 12
464e97: 13
49ca95: 13
5f0a80: 13
5f1d5f: 13
4c7847: 13
4d6238: 13
4c266d: 13
47684e: 13
5f0523: 13
4d8a63: 14
478465: 14
47698d: 14
4bede2: 14
4bc615: 14
420809: 14
50fb6f: 14
4d073e: 14
476c75: 14
476980: 14
4cc704: 14
463ac7: 14
5f0c31: 14
4afeb1: 14
45fefb: 14
4be6fd: 14
476db3: 14
47671e: 14
50fd3d: 14
5f2d46: 14
4d646f: 14
5f0af9: 14
606843: 14
406f96: 14
47aaac: 14
473ac3: 14
47dd28: 14
4a8559: 15
458c26: 15
4a253a: 15
5df41c: 15
4d318f: 15
5f1ead: 15
45ddb2: 15
47b252: 15
408a73: 15
417e31: 15
60bbc0: 15
4c5850: 15
479557: 15
608b7d: 15
4a8530: 15
4989c8: 16
609991: 16
608ce0: 16
608f17: 16
5f0730: 16
608d34: 16
608eab: 16
608e4b: 16
407c13: 16
608df7: 16
476842: 17
608c11: 17
6068dc: 17
41b153: 17
475f40: 17
60bdf0: 17
5f783a: 17
4208c2: 17
4a849f: 17
4be3e8: 17
4be3ce: 17
4be3c9: 17
46fecc: 18
4bc148: 18
4d8f2b: 18
46d7cc: 18
4b04fa: 18
608d1f: 18
45aaad: 18
608ccb: 18
408aec: 18
4ddbb6: 18
4b1917: 18
476ec0: 18
608c56: 18
60aba7: 18
479929: 18
45b2f2: 18
608de2: 18
608efc: 18
402890: 18
608e36: 18
608e90: 18
4780a5: 18
46440f: 19
45fed0: 19
60a1d3: 19
609740: 19
476df0: 19
4079a4: 19
45b5e2: 19
5f07c4: 19
418493: 19
4d63e7: 19
45c329: 19
4208f0: 19
4d6349: 20
4d5751: 20
608c26: 20
463950: 20
608f32: 20
476002: 20
60bfd0: 20
401883: 20
418c00: 20
60c980: 20
46c4f5: 20
41bc99: 20
4a86d3: 20
608e60: 20
4c2377: 20
608d49: 20
608cf5: 20
4cc639: 20
4d76d2: 20
4766ec: 20
608ec6: 20
608e0c: 20
4bd344: 21
45acc4: 21
476f30: 21
457145: 21
428f5a: 21
419339: 21
476ab9: 21
4596cf: 21
608bfc: 22
60c960: 22
47c499: 22
47c938: 22
45ddc0: 22
479c25: 23
5f0b91: 23
4ba7f8: 23
476dd8: 23
41b157: 24
608ff0: 24
445935: 24
476dbe: 24
45afa2: 25
47b9d7: 25
476dc9: 26
46c855: 26
47a598: 26
408ac3: 27
445911: 27
445d67: 27
407423: 27
45b1b2: 27
46c405: 27
4d5ffc: 28
4785ad: 28
47642b: 28
60bdd0: 29
41193a: 29
445929: 30
44591c: 30
4a8709: 30
609a24: 31
478015: 31
60900a: 32
46730b: 32
4be5ac: 32
4644f7: 32
4d073b: 32
4ca986: 32
476eed: 32
47da1c: 32
445d55: 33
4a8457: 33
445915: 33
4c3a32: 33
47dd5f: 33
46c859: 34
47d38b: 35
4d3044: 36
50fbd6: 36
4d2dd9: 36
44588b: 36
4dad84: 37
47670e: 37
4d8ee2: 37
478063: 37
47aa04: 38
606826: 39
5f0535: 39
60c9a0: 39
4da99e: 39
46598a: 39
458191: 39
4cf564: 39
4c5c33: 39
477d72: 39
6068b9: 40
4be9bc: 40
41b15b: 42
6068e3: 42
401ffa: 43
4bb7f6: 44
47b9c0: 44
4ba381: 45
4d5fff: 45
476941: 46
478f3a: 46
457141: 46
476d20: 46
5f2621: 46
47b3d5: 47
4c784b: 48
445d5e: 48
41a453: 48
458194: 48
4d3131: 48
47b8bd: 49
47cba1: 49
4994bd: 49
60a240: 49
4698c3: 49
479bdd: 50
462dac: 50
50fcc1: 50
478165: 51
5f0c7a: 53
49caa2: 54
60c5a0: 55
45b58f: 55
4c5908: 56
478e95: 56
4be8e6: 56
479b30: 57
4d5f18: 58
4c5006: 58
476e4a: 58
4c5b80: 59
4bab55: 59
4d3189: 59
479b24: 59
476008: 59
50fc30: 60
60bfe0: 60
47682e: 60
477058: 61
476ec4: 62
475fd0: 64
4c7a7b: 65
47d1df: 66
477f4d: 67
476845: 67
467136: 68
5f0c4b: 68
41ae81: 68
4bee24: 70
4d8a67: 70
475fcc: 70
5ef0fd: 70
4d37d4: 70
4bb2d5: 72
4d76ca: 72
476629: 73
5f0c1c: 73
4bb03f: 74
4b944b: 74
476a8e: 75
4c585c: 79
4781bb: 79
50fcb4: 79
476abd: 81
4bbd1e: 81
4bac41: 83
476719: 83
4d56f4: 85
4c5821: 87
4bb7f9: 88
608ba4: 89
4c5841: 90
45738e: 91
608ffc: 91
41961c: 94
4cfa06: 94
609018: 94
6068b2: 95
50faa2: 95
4d63db: 95
46713a: 99
4120c5: 99
4996b4: 100
476984: 101
4bb03d: 102
477f4a: 102
47b8e0: 103
4792a9: 103
418b55: 103
419ac0: 104
4b8f11: 104
41bbd3: 105
46712d: 106
47b8a0: 108
419ac4: 111
4bac47: 112
418a50: 118
41b037: 119
4c5c89: 120
428f94: 123
47d555: 124
41a53c: 125
60c3a0: 125
47b57f: 127
42100a: 128
4d5f47: 136
418b00: 138
478199: 138
41193e: 138
5f1d8d: 138
412243: 138
60c1c0: 140
476e11: 141
4c4cbe: 143
4118cb: 144
50fc10: 144
4d080b: 145
41a470: 145
4783d4: 147
5ef18b: 147
4dcb84: 153
412246: 153
49c93b: 153
477fbf: 155
60be00: 161
4a86ab: 162
4d6457: 163
4798e2: 167
4d9100: 172
47b3e8: 174
4bb317: 176
47ab60: 181
476ff0: 182
47b8a4: 183
476129: 185
46ff08: 188
5eefef: 190
4ba4e0: 190
4dcaf9: 192
41b02a: 194
4d0742: 195
4bacb7: 197
5f0544: 198
4195f4: 199
477ff2: 200
4c2362: 202
4d075a: 208
4ba4f9: 209
4761a9: 215
4baba6: 220
418b44: 222
47d2de: 223
4d63d5: 226
46c2b2: 229
4761ac: 234
50fcf1: 236
47cba9: 238
46cb49: 243
46d0f2: 244
4c64b6: 246
47d1aa: 247
476df7: 248
4c580f: 254
50fa96: 261
47b541: 262
46c778: 267
5f053a: 273
47c9ed: 274
47dd59: 277
46d05f: 280
476271: 283
479b27: 291
50fc05: 292
47601c: 299
47dd63: 300
47aabf: 323
4c581c: 326
4cf81b: 328
476e4d: 329
417f48: 336
478aa0: 339
50fa8b: 350
476fe5: 352
5f2c39: 353
4c38f4: 364
47de2b: 368
4bbd11: 369
418bc4: 372
421020: 387
41a559: 387
418bc0: 411
476f34: 416
419040: 416
47a963: 417
479ba6: 419
4d5f21: 421
41d350: 430
479aff: 438
47d3cb: 473
47a217: 486
478cc9: 504
463c74: 507
47d20e: 507
5ee9c8: 518
479c56: 524
4d7924: 531
46ff9c: 533
463b93: 549
4dca40: 556
47d25c: 565
428f70: 573
418b3e: 590
475fc2: 608
418d4a: 620
5114d7: 643
477f07: 652
4c5c2d: 653
50fa9a: 706
476221: 718
477003: 733
476147: 736
4764bf: 758
4c5911: 763
418b21: 765
4c5b85: 782
50fcc4: 792
4bab02: 841
4baacf: 859
4b9572: 865
479a9c: 875
47cd3f: 899
475ef3: 944
47cd5a: 969
475f06: 986
4195f0: 987
4d5f4a: 988
4b8e8a: 994
417f3c: 1024
4b8eb0: 1055
47d275: 1057
4b8b99: 1058
4195dc: 1065
4ce30b: 1068
476133: 1096
477038: 1101
479af5: 1105
4d5793: 1148
476080: 1253
47623f: 1471
476123: 1490
47612d: 1532
479b03: 1560
476113: 1604
47a692: 1666
479c0b: 1799
47d24d: 1898
47cd43: 1899
47d251: 1918
47d272: 1927
418b06: 1929
47616a: 1980
47d2e1: 1993
418ae2: 2402
4d63df: 2428
475f82: 2939
47a696: 3106
46ff30: 3110
418b30: 3972
417f3f: 4071
417f2a: 5052
4cc330: 63429

RAW hits: 3145343
Loads Generated: 49831232
Loads sent to L1D: 46685890
Stores Generated: 39740620
Stores sent to L1D: 39740638
Major fault: 0 Minor fault: 5924
Allocated PAGES: 5924
Total Load insts: 55682647
Total Non-spec loads: 13088273
Percentage of speculative loads: 76.4949
L1D response latency: 82.1273 cycles
Load retirement latency: 112.127 cycles


DRAM Statistics
 CHANNEL 0
 RQ ROW_BUFFER_HIT:      55070  ROW_BUFFER_MISS:     166135
 DBUS_CONGESTED:         21
 WQ ROW_BUFFER_HIT:       9463  ROW_BUFFER_MISS:      25665  FULL:          0

 AVG_CONGESTED_CYCLE: 4
 All warmup complete: 2
Channel 0 Bank busy for read cycles: 0
Channel 0 Bank busy for write cycles: 0
Channel 0
Rank 0
0banks busy for read cycles: 376645786
0banks busy for write cycles: 28311
1banks busy for read cycles: 21918337
1banks busy for write cycles: 5164183
2banks busy for read cycles: 2208152
2banks busy for write cycles: 647435
3banks busy for read cycles: 330392
3banks busy for write cycles: 108742
4banks busy for read cycles: 33150
4banks busy for write cycles: 20542
5banks busy for read cycles: 16125
5banks busy for write cycles: 8240
6banks busy for read cycles: 8759
6banks busy for write cycles: 4289
7banks busy for read cycles: 6115
7banks busy for write cycles: 765
8banks busy for read cycles: 4933
8banks busy for write cycles: 0

CPU 0 Branch Prediction Accuracy: 99.0693% MPKI: 1.53431 Average ROB Occupancy at Mispredict: 53.4083
Branch types
NOT_BRANCH: 167028098 83.514%
BRANCH_DIRECT_JUMP: 4141048 2.07052%
BRANCH_INDIRECT: 1274734 0.637367%
BRANCH_CONDITIONAL: 23669876 11.8349%
BRANCH_DIRECT_CALL: 1551808 0.775904%
BRANCH_INDIRECT_CALL: 391135 0.195567%
BRANCH_RETURN: 1942942 0.971471%
BRANCH_OTHER: 0 0%

DRAM PAGES: 1048576
Allocated PAGES: 5924
