
*** ChampSim Multicore Out-of-Order Simulator ***

Warmup Instructions: 50000000
Simulation Instructions: 200000000
Number of CPUs: 1
LLC sets: 2048
LLC ways: 16
Off-chip DRAM Size: 4096 MB Channels: 1 Width: 64-bit Data Rate: 6400 MT/s
CPU 0 runs /home/sumon/secure_berti/Berti_Baseline/../../traces/spec/603.bwaves_s-2609B.champsimtrace.xz
.xz
BTB has LRU replacement policy
ITLB has LRU replacement policy
DTLB has LRU replacement policy
STLB has LRU replacement policy
L1I has LRU replacement policy
L1D has LRU replacement policy
L2C has LRU replacement policy
LLC has LRU replacement policy
Heartbeat CPU 0 instructions: 10000001 cycles: 3316983 heartbeat IPC: 3.01479 cumulative IPC: 3.01479 (Simulation time: 0 hr 0 min 40 sec) 
Heartbeat CPU 0 instructions: 20000003 cycles: 6634005 heartbeat IPC: 3.01475 cumulative IPC: 3.01477 (Simulation time: 0 hr 1 min 22 sec) 
Heartbeat CPU 0 instructions: 30000001 cycles: 9951370 heartbeat IPC: 3.01444 cumulative IPC: 3.01466 (Simulation time: 0 hr 2 min 10 sec) 
Heartbeat CPU 0 instructions: 40000002 cycles: 13268271 heartbeat IPC: 3.01486 cumulative IPC: 3.01471 (Simulation time: 0 hr 2 min 59 sec) 
Heartbeat CPU 0 instructions: 50000003 cycles: 16584918 heartbeat IPC: 3.01509 cumulative IPC: 3.01479 (Simulation time: 0 hr 3 min 48 sec) 

Warmup complete CPU 0 instructions: 50000003 cycles: 16584918 (Simulation time: 0 hr 3 min 48 sec) 

Heartbeat CPU 0 instructions: 60000000 cycles: 31564978 heartbeat IPC: 0.667554 cumulative IPC: 0.667554 (Simulation time: 0 hr 4 min 56 sec) 
Heartbeat CPU 0 instructions: 70000001 cycles: 46602379 heartbeat IPC: 0.665009 cumulative IPC: 0.666279 (Simulation time: 0 hr 6 min 7 sec) 
Heartbeat CPU 0 instructions: 80000003 cycles: 61665759 heartbeat IPC: 0.663862 cumulative IPC: 0.665471 (Simulation time: 0 hr 7 min 17 sec) 
Heartbeat CPU 0 instructions: 90000003 cycles: 76701030 heartbeat IPC: 0.665103 cumulative IPC: 0.665379 (Simulation time: 0 hr 8 min 27 sec) 
Heartbeat CPU 0 instructions: 100000001 cycles: 91754741 heartbeat IPC: 0.664288 cumulative IPC: 0.665161 (Simulation time: 0 hr 9 min 42 sec) 
Heartbeat CPU 0 instructions: 110000000 cycles: 106787693 heartbeat IPC: 0.665205 cumulative IPC: 0.665168 (Simulation time: 0 hr 10 min 58 sec) 
Heartbeat CPU 0 instructions: 120000000 cycles: 121783307 heartbeat IPC: 0.666862 cumulative IPC: 0.665409 (Simulation time: 0 hr 12 min 12 sec) 
Heartbeat CPU 0 instructions: 130000002 cycles: 136832480 heartbeat IPC: 0.664488 cumulative IPC: 0.665294 (Simulation time: 0 hr 13 min 30 sec) 
Heartbeat CPU 0 instructions: 140000000 cycles: 151879571 heartbeat IPC: 0.66458 cumulative IPC: 0.665215 (Simulation time: 0 hr 14 min 49 sec) 
Heartbeat CPU 0 instructions: 150000001 cycles: 166911326 heartbeat IPC: 0.665258 cumulative IPC: 0.665219 (Simulation time: 0 hr 15 min 57 sec) 
Heartbeat CPU 0 instructions: 160000000 cycles: 182006075 heartbeat IPC: 0.662482 cumulative IPC: 0.664969 (Simulation time: 0 hr 17 min 14 sec) 
Heartbeat CPU 0 instructions: 170000003 cycles: 197017331 heartbeat IPC: 0.666167 cumulative IPC: 0.665069 (Simulation time: 0 hr 19 min 7 sec) 
Heartbeat CPU 0 instructions: 180000000 cycles: 212053704 heartbeat IPC: 0.665054 cumulative IPC: 0.665068 (Simulation time: 0 hr 23 min 9 sec) 
Heartbeat CPU 0 instructions: 190000001 cycles: 227091792 heartbeat IPC: 0.664978 cumulative IPC: 0.665061 (Simulation time: 0 hr 27 min 30 sec) 
Heartbeat CPU 0 instructions: 200000000 cycles: 242103873 heartbeat IPC: 0.66613 cumulative IPC: 0.665133 (Simulation time: 0 hr 31 min 30 sec) 
Heartbeat CPU 0 instructions: 210000003 cycles: 257139073 heartbeat IPC: 0.665106 cumulative IPC: 0.665131 (Simulation time: 0 hr 35 min 4 sec) 
Heartbeat CPU 0 instructions: 220000000 cycles: 272160313 heartbeat IPC: 0.665724 cumulative IPC: 0.665166 (Simulation time: 0 hr 37 min 8 sec) 
Heartbeat CPU 0 instructions: 230000002 cycles: 287167758 heartbeat IPC: 0.666336 cumulative IPC: 0.665231 (Simulation time: 0 hr 37 min 50 sec) 
Heartbeat CPU 0 instructions: 240000000 cycles: 302183897 heartbeat IPC: 0.66595 cumulative IPC: 0.665268 (Simulation time: 0 hr 38 min 32 sec) 
Heartbeat CPU 0 instructions: 250000000 cycles: 317205578 heartbeat IPC: 0.665704 cumulative IPC: 0.66529 (Simulation time: 0 hr 39 min 22 sec) 
Finished CPU 0 instructions: 200000001 cycles: 300620661 cumulative IPC: 0.66529 (Simulation time: 0 hr 39 min 22 sec) 

ChampSim completed all CPUs

Region of Interest Statistics

CPU 0 cumulative IPC: 0.66529 instructions: 200000001 cycles: 300620661
ITLB TOTAL     ACCESS:   27565274  HIT:   27565274  MISS:          0  HIT %:        100  MISS %:          0   MPKI: 0
ITLB Test counter:          0
ITLB LOAD TRANSLATION ACCESS:   27565274  HIT:   27565274  MISS:          0  HIT %:        100  MISS %:          0   MPKI: 0
ITLB PREFETCH  REQUESTED:          0  ISSUED:          0  USEFUL:          0  USELESS:          0
ITLB USEFUL LOAD PREFETCHES:          0 PREFETCH ISSUED TO LOWER LEVEL:          0  ACCURACY: -nan
ITLB TIMELY PREFETCHES:          0 LATE PREFETCHES: 0 DROPPED PREFETCHES: 0
ITLB COMMIT LATE PREFETCHES: 0 MISSED OPPORTUNITY: 0 LATE IN PQ: 0 UNCOVERED: 0
ITLB COMMIT LATE MSHR PREFETCHES: 0
ITLB MPKI TOTAL: 0 MSHR LATE: 0 PQ LATE: 0 COMMIT LATE: 0 MISSED OPPORTUNITY: 0 UNCOVERED: 0
ITLB PREFETCHES SAME FILL-ORIGIN LEVEL: 0 DIFFERENT FILL-ORIGIN LEVEL: 0
ITLB AVERAGE MISS LATENCY: -nan cycles
ITLB AVERAGE MISS LATENCY LOAD: -nan cycles
ITLB AVERAGE MISS LATENCY PREFETCH: -nan cycles
ITLB AVERAGE MSHR OCCUPANCY: 0
ITLB MSHR FULL: 0
ITLB RQ	ACCESS:   36431930	FORWARD:          0	MERGED:    8866656	TO_CACHE:   27565274

DTLB TOTAL     ACCESS:   57560738  HIT:   57437813  MISS:     122925  HIT %:    99.7864  MISS %:   0.213557   MPKI: 0.614625
DTLB Test counter:          0
DTLB LOAD TRANSLATION ACCESS:   57560738  HIT:   57437813  MISS:     122925  HIT %:    99.7864  MISS %:   0.213557   MPKI: 0.614625
DTLB PREFETCH  REQUESTED:          0  ISSUED:          0  USEFUL:          0  USELESS:          0
DTLB USEFUL LOAD PREFETCHES:          0 PREFETCH ISSUED TO LOWER LEVEL:          0  ACCURACY: -nan
DTLB TIMELY PREFETCHES:          0 LATE PREFETCHES: 0 DROPPED PREFETCHES: 0
DTLB COMMIT LATE PREFETCHES: 0 MISSED OPPORTUNITY: 0 LATE IN PQ: 0 UNCOVERED: 0
DTLB COMMIT LATE MSHR PREFETCHES: 0
DTLB MPKI TOTAL: 0 MSHR LATE: 0 PQ LATE: 0 COMMIT LATE: 0 MISSED OPPORTUNITY: 0 UNCOVERED: 0
DTLB PREFETCHES SAME FILL-ORIGIN LEVEL: 0 DIFFERENT FILL-ORIGIN LEVEL: 0
DTLB AVERAGE MISS LATENCY: 240.381 cycles
DTLB AVERAGE MISS LATENCY LOAD: -nan cycles
DTLB AVERAGE MISS LATENCY PREFETCH: -nan cycles
DTLB AVERAGE MSHR OCCUPANCY: 0.0175788
DTLB MSHR FULL: 2.10108e-06
DTLB RQ	ACCESS:   69735982	FORWARD:          0	MERGED:   12146633	TO_CACHE:   57589349

STLB TOTAL     ACCESS:     122925  HIT:      63543  MISS:      59382  HIT %:    51.6925  MISS %:    48.3075   MPKI: 0.29691
STLB Test counter:          0
STLB LOAD TRANSLATION ACCESS:     122925  HIT:      63543  MISS:      59382  HIT %:    51.6925  MISS %:    48.3075   MPKI: 0.29691
STLB PREFETCH  REQUESTED:          0  ISSUED:          0  USEFUL:          0  USELESS:          0
STLB USEFUL LOAD PREFETCHES:          0 PREFETCH ISSUED TO LOWER LEVEL:          0  ACCURACY: -nan
STLB TIMELY PREFETCHES:          0 LATE PREFETCHES: 0 DROPPED PREFETCHES: 0
STLB COMMIT LATE PREFETCHES: 0 MISSED OPPORTUNITY: 0 LATE IN PQ: 0 UNCOVERED: 0
STLB COMMIT LATE MSHR PREFETCHES: 0
STLB MPKI TOTAL: 0 MSHR LATE: 0 PQ LATE: 0 COMMIT LATE: 0 MISSED OPPORTUNITY: 0 UNCOVERED: 0
STLB PREFETCHES SAME FILL-ORIGIN LEVEL: 0 DIFFERENT FILL-ORIGIN LEVEL: 0
STLB AVERAGE MISS LATENCY: 461.306 cycles
STLB AVERAGE MISS LATENCY LOAD: -nan cycles
STLB AVERAGE MISS LATENCY PREFETCH: -nan cycles
STLB AVERAGE MSHR OCCUPANCY: 1.1342
STLB MSHR FULL: 0
STLB RQ	ACCESS:     122925	FORWARD:          0	MERGED:          0	TO_CACHE:     122925

STLB Hit, L1D data hit: 0
STLB Hit, L2C data hit: 0
STLB Hit, LLC data hit: 0
STLB Hit, LLC data miss: 0
STLB STLB hints to L2: 0
L1D TOTAL     ACCESS:   68503948  HIT:   64505571  MISS:    3998377  HIT %:    94.1633  MISS %:    5.83671   MPKI: 19.9919
L1D Test counter:          0
L1D LOAD      ACCESS:   57313231  HIT:   53412302  MISS:    5056968  HIT %:    93.1937  MISS %:    6.80633   MPKI: 19.5046
L1D RFO       ACCESS:   11190717  HIT:   11093269  MISS:      97448  HIT %:    99.1292  MISS %:   0.870793   MPKI: 0.48724
L1D PREFETCH  REQUESTED:          0  ISSUED:          0  USEFUL:          0  USELESS:          0
L1D USEFUL LOAD PREFETCHES:          0 PREFETCH ISSUED TO LOWER LEVEL:          0  ACCURACY: -nan
L1D TIMELY PREFETCHES:          0 LATE PREFETCHES: 0 DROPPED PREFETCHES: 0
L1D COMMIT LATE PREFETCHES: 0 MISSED OPPORTUNITY: 0 LATE IN PQ: 0 UNCOVERED: 0
L1D COMMIT LATE MSHR PREFETCHES: 0
L1D MPKI TOTAL: 25.2848 MSHR LATE: 0 PQ LATE: 0 COMMIT LATE: 0 MISSED OPPORTUNITY: 0 UNCOVERED: 0
L1D PREFETCHES SAME FILL-ORIGIN LEVEL: 0 DIFFERENT FILL-ORIGIN LEVEL: 0
L1D AVERAGE MISS LATENCY: 308.27 cycles
L1D AVERAGE MISS LATENCY LOAD: 311.23 cycles
L1D AVERAGE MISS LATENCY PREFETCH: -nan cycles
L1D AVERAGE MSHR OCCUPANCY: 3.73747
L1D MSHR FULL: 0.15637
L1D RQ	ACCESS:   84338003	FORWARD:          0	MERGED:   25550008	TO_CACHE:   58469268
L1D WQ	ACCESS:   11266815	FORWARD:     318727	MERGED:        101	TO_CACHE:   11266714

L1D UNIQUE REGIONS ACCESSED: 0
L1D REGIONS CONFLICTS: 0
L1D Cross Page Prefetch Requests: 0
L1D Same Page Prefetch Requests: 0
L1D ROI Sum of L1D PQ occupancy: 0
L1D PREFETCHES PUSHED FROM L2C: 0
401a7c: 6
401ca1: 11
401c7a: 11
401c6d: 11
401c0a: 1444
401c02: 1444
401a8b: 96027
401a98: 97449
401a66: 97449
401a59: 97470
401a4a: 98899
401a30: 487244
401a6f: 487244
401a3c: 487244
401a61: 487244
401a86: 487244
401a93: 487244
401a54: 487244
L1I TOTAL     ACCESS:   36431928  HIT:   36431928  MISS:          0  HIT %:        100  MISS %:          0   MPKI: 0
L1I Test counter:          0
L1I LOAD      ACCESS:   36431928  HIT:   36431928  MISS:          0  HIT %:        100  MISS %:          0   MPKI: 0
L1I PREFETCH  REQUESTED:          0  ISSUED:          0  USEFUL:          0  USELESS:          0
L1I USEFUL LOAD PREFETCHES:          0 PREFETCH ISSUED TO LOWER LEVEL:          0  ACCURACY: -nan
L1I TIMELY PREFETCHES:          0 LATE PREFETCHES: 0 DROPPED PREFETCHES: 0
L1I COMMIT LATE PREFETCHES: 0 MISSED OPPORTUNITY: 0 LATE IN PQ: 0 UNCOVERED: 0
L1I COMMIT LATE MSHR PREFETCHES: 0
L1I MPKI TOTAL: 0 MSHR LATE: 0 PQ LATE: 0 COMMIT LATE: 0 MISSED OPPORTUNITY: 0 UNCOVERED: 0
L1I PREFETCHES SAME FILL-ORIGIN LEVEL: 0 DIFFERENT FILL-ORIGIN LEVEL: 0
L1I AVERAGE MISS LATENCY: -nan cycles
L1I AVERAGE MISS LATENCY LOAD: -nan cycles
L1I AVERAGE MISS LATENCY PREFETCH: -nan cycles
L1I AVERAGE MSHR OCCUPANCY: 0
L1I MSHR FULL: 0
L1I RQ	ACCESS:   48798602	FORWARD:          0	MERGED:   12366672	TO_CACHE:   36431930

BTB TOTAL     ACCESS:    4834907  HIT:    4834902  MISS:          5  HIT %:    99.9999  MISS %: 0.000103415   MPKI: 2.5e-05
BTB Test counter:          0
BTB BRANCH_DIRECT_JUMP	ACCESS:          0  HIT:          0  MISS:          0
BTB BRANCH_INDIRECT	ACCESS:          0  HIT:          0  MISS:          0
BTB BRANCH_CONDITIONAL	ACCESS:    4834907  HIT:    4834902  MISS:          5
BTB BRANCH_DIRECT_CALL	ACCESS:          0  HIT:          0  MISS:          0
BTB BRANCH_INDIRECT_CALL	ACCESS:          0  HIT:          0  MISS:          0
BTB BRANCH_RETURN	ACCESS:          0  HIT:          0  MISS:          0
BTB BRANCH_OTHER ACCESS:          0  HIT:          0  MISS:          0

L2C TOTAL     ACCESS:    4156697  HIT:     348622  MISS:    3808075  HIT %:      8.387  MISS %:     91.613   MPKI: 19.0404
L2C Test counter:          0
L2C LOAD      ACCESS:    3900929  HIT:     197841  MISS:    3703088  HIT %:    5.07164  MISS %:    94.9284   MPKI: 18.5154
L2C DATA LOAD MPKI: 18.5154
L2C INSTRUCTION LOAD MPKI: 0
L2C RFO       ACCESS:      97448  HIT:          0  MISS:      97448  HIT %:          0  MISS %:        100   MPKI: 0.48724
L2C WRITEBACK ACCESS:      98932  HIT:      98932  MISS:          0  HIT %:        100  MISS %:          0   MPKI: 0
L2C LOAD TRANSLATION ACCESS:      59388  HIT:      51849  MISS:       7539  HIT %:    87.3055  MISS %:    12.6945   MPKI: 0.037695
L2C PREFETCH  REQUESTED:          0  ISSUED:          0  USEFUL:          0  USELESS:          0
L2C USEFUL LOAD PREFETCHES:          0 PREFETCH ISSUED TO LOWER LEVEL:          0  ACCURACY: -nan
L2C TIMELY PREFETCHES:          0 LATE PREFETCHES: 0 DROPPED PREFETCHES: 0
L2C COMMIT LATE PREFETCHES: 0 MISSED OPPORTUNITY: 0 LATE IN PQ: 0 UNCOVERED: 0
L2C COMMIT LATE MSHR PREFETCHES: 0
L2C MPKI TOTAL: 18.5154 MSHR LATE: 0 PQ LATE: 0 COMMIT LATE: 0 MISSED OPPORTUNITY: 0 UNCOVERED: 0
L2C PREFETCHES SAME FILL-ORIGIN LEVEL: 0 DIFFERENT FILL-ORIGIN LEVEL: 0
L2C AVERAGE MISS LATENCY: 306.239 cycles
L2C AVERAGE MISS LATENCY LOAD: 309.894 cycles
L2C AVERAGE MISS LATENCY PREFETCH: -nan cycles
L2C AVERAGE MSHR OCCUPANCY: 5.99528
L2C MSHR FULL: 0
L2C RQ	ACCESS:    4057765	FORWARD:          0	MERGED:          0	TO_CACHE:    4057765
L2C WQ	ACCESS:      98932	FORWARD:          0	MERGED:          0	TO_CACHE:      98932

L2C Instructions Evicting Data 0
L2C Translations Evicting Data 7532
L2C Data Evicting Data 3793006
L2C Instructions Evicting Instructions 0
L2C Translations Evicting Instructions 0
L2C Data Evicting Instructions 0
L2C Instructions Evicting Translations 0
L2C Translations Evicting Translations 7
L2C Data Evicting Translations 7530
L2C Dense regions hint from L2: 0
401a7c: 6
401ca1: 11
401c7a: 11
401c6d: 11
401a4a: 726
401a98: 96696
401a66: 97449
401a59: 97470
401a93: 487244
401a30: 487244
401a61: 487244
401a3c: 487244
401a6f: 487244
401a54: 487244
401a86: 487244
PSCL5 TOTAL     ACCESS:      59382  HIT:      59382  MISS:          0  HIT %:        100  MISS %:          0   MPKI: 0
PSCL5 Test counter:          0
PSCL5 LOAD TRANSLATION ACCESS:      59382  HIT:      59382  MISS:          0  HIT %:        100  MISS %:          0   MPKI: 0
PSCL5 PREFETCH  REQUESTED:          0  ISSUED:          0  USEFUL:          0  USELESS:          0
PSCL5 USEFUL LOAD PREFETCHES:          0 PREFETCH ISSUED TO LOWER LEVEL:          0  ACCURACY: -nan
PSCL5 TIMELY PREFETCHES:          0 LATE PREFETCHES: 0 DROPPED PREFETCHES: 0
PSCL5 COMMIT LATE PREFETCHES: 0 MISSED OPPORTUNITY: 0 LATE IN PQ: 0 UNCOVERED: 0
PSCL5 COMMIT LATE MSHR PREFETCHES: 0
PSCL5 MPKI TOTAL: 0 MSHR LATE: 0 PQ LATE: 0 COMMIT LATE: 0 MISSED OPPORTUNITY: 0 UNCOVERED: 0
PSCL5 PREFETCHES SAME FILL-ORIGIN LEVEL: 0 DIFFERENT FILL-ORIGIN LEVEL: 0

PSCL4 TOTAL     ACCESS:      59382  HIT:      59382  MISS:          0  HIT %:        100  MISS %:          0   MPKI: 0
PSCL4 Test counter:          0
PSCL4 LOAD TRANSLATION ACCESS:      59382  HIT:      59382  MISS:          0  HIT %:        100  MISS %:          0   MPKI: 0
PSCL4 PREFETCH  REQUESTED:          0  ISSUED:          0  USEFUL:          0  USELESS:          0
PSCL4 USEFUL LOAD PREFETCHES:          0 PREFETCH ISSUED TO LOWER LEVEL:          0  ACCURACY: -nan
PSCL4 TIMELY PREFETCHES:          0 LATE PREFETCHES: 0 DROPPED PREFETCHES: 0
PSCL4 COMMIT LATE PREFETCHES: 0 MISSED OPPORTUNITY: 0 LATE IN PQ: 0 UNCOVERED: 0
PSCL4 COMMIT LATE MSHR PREFETCHES: 0
PSCL4 MPKI TOTAL: 0 MSHR LATE: 0 PQ LATE: 0 COMMIT LATE: 0 MISSED OPPORTUNITY: 0 UNCOVERED: 0
PSCL4 PREFETCHES SAME FILL-ORIGIN LEVEL: 0 DIFFERENT FILL-ORIGIN LEVEL: 0

PSCL3 TOTAL     ACCESS:      59382  HIT:      59382  MISS:          0  HIT %:        100  MISS %:          0   MPKI: 0
PSCL3 Test counter:          0
PSCL3 LOAD TRANSLATION ACCESS:      59382  HIT:      59382  MISS:          0  HIT %:        100  MISS %:          0   MPKI: 0
PSCL3 PREFETCH  REQUESTED:          0  ISSUED:          0  USEFUL:          0  USELESS:          0
PSCL3 USEFUL LOAD PREFETCHES:          0 PREFETCH ISSUED TO LOWER LEVEL:          0  ACCURACY: -nan
PSCL3 TIMELY PREFETCHES:          0 LATE PREFETCHES: 0 DROPPED PREFETCHES: 0
PSCL3 COMMIT LATE PREFETCHES: 0 MISSED OPPORTUNITY: 0 LATE IN PQ: 0 UNCOVERED: 0
PSCL3 COMMIT LATE MSHR PREFETCHES: 0
PSCL3 MPKI TOTAL: 0 MSHR LATE: 0 PQ LATE: 0 COMMIT LATE: 0 MISSED OPPORTUNITY: 0 UNCOVERED: 0
PSCL3 PREFETCHES SAME FILL-ORIGIN LEVEL: 0 DIFFERENT FILL-ORIGIN LEVEL: 0

PSCL2 TOTAL     ACCESS:      59382  HIT:      59265  MISS:        117  HIT %:     99.803  MISS %:   0.197029   MPKI: 0.000585
PSCL2 Test counter:          0
PSCL2 LOAD TRANSLATION ACCESS:      59382  HIT:      59265  MISS:        117  HIT %:     99.803  MISS %:   0.197029   MPKI: 0.000585
PSCL2 PREFETCH  REQUESTED:          0  ISSUED:          0  USEFUL:          0  USELESS:          0
PSCL2 USEFUL LOAD PREFETCHES:          0 PREFETCH ISSUED TO LOWER LEVEL:          0  ACCURACY: -nan
PSCL2 TIMELY PREFETCHES:          0 LATE PREFETCHES: 0 DROPPED PREFETCHES: 0
PSCL2 COMMIT LATE PREFETCHES: 0 MISSED OPPORTUNITY: 0 LATE IN PQ: 0 UNCOVERED: 0
PSCL2 COMMIT LATE MSHR PREFETCHES: 0
PSCL2 MPKI TOTAL: 0 MSHR LATE: 0 PQ LATE: 0 COMMIT LATE: 0 MISSED OPPORTUNITY: 0 UNCOVERED: 0
PSCL2 PREFETCHES SAME FILL-ORIGIN LEVEL: 0 DIFFERENT FILL-ORIGIN LEVEL: 0

LLC TOTAL     ACCESS:    3905572  HIT:      97497  MISS:    3808075  HIT %:    2.49636  MISS %:    97.5036   MPKI: 19.0404
LLC Test counter:          0
LLC LOAD      ACCESS:    3703088  HIT:          0  MISS:    3703088  HIT %:          0  MISS %:        100   MPKI: 18.5154
LLC RFO       ACCESS:      97448  HIT:          0  MISS:      97448  HIT %:          0  MISS %:        100   MPKI: 0.48724
LLC WRITEBACK ACCESS:      97497  HIT:      97497  MISS:          0  HIT %:        100  MISS %:          0   MPKI: 0
LLC LOAD TRANSLATION ACCESS:       7539  HIT:          0  MISS:       7539  HIT %:          0  MISS %:        100   MPKI: 0.037695
LLC PREFETCH  REQUESTED:          0  ISSUED:          0  USEFUL:          0  USELESS:          0
LLC USEFUL LOAD PREFETCHES:          0 PREFETCH ISSUED TO LOWER LEVEL:          0  ACCURACY: -nan
LLC TIMELY PREFETCHES:          0 LATE PREFETCHES: 0 DROPPED PREFETCHES: 0
LLC COMMIT LATE PREFETCHES: 0 MISSED OPPORTUNITY: 0 LATE IN PQ: 0 UNCOVERED: 0
LLC COMMIT LATE MSHR PREFETCHES: 0
LLC MPKI TOTAL: 18.5154 MSHR LATE: 0 PQ LATE: 0 COMMIT LATE: 0 MISSED OPPORTUNITY: 0 UNCOVERED: 0
LLC PREFETCHES SAME FILL-ORIGIN LEVEL: 0 DIFFERENT FILL-ORIGIN LEVEL: 0
LLC AVERAGE MISS LATENCY: 275.535 cycles
LLC AVERAGE MISS LATENCY LOAD: 279.183 cycles
LLC AVERAGE MISS LATENCY PREFETCH: -nan cycles
LLC AVERAGE MSHR OCCUPANCY: 5.8087
LLC MSHR FULL: 0
LLC RQ	ACCESS:    3808075	FORWARD:          0	MERGED:          0	TO_CACHE:    3808075
LLC WQ	ACCESS:      97497	FORWARD:          0	MERGED:          0	TO_CACHE:      97497

LLC Dense regions hint to LLC: 0
401a7c: 6
401ca1: 11
401c7a: 11
401c6d: 11
401a4a: 726
401a98: 96696
401a66: 97449
401a59: 97470
401a93: 487244
401a30: 487244
401a61: 487244
401a3c: 487244
401a6f: 487244
401a54: 487244
401a86: 487244

RAW hits: 1622206
Loads Generated: 85960219
Loads sent to L1D: 84338003
Stores Generated: 11266825
Stores sent to L1D: 11266815
Major fault: 0 Minor fault: 70872
Allocated PAGES: 70872
Total Load insts: 105048722
Total Non-spec loads: 5717121
Percentage of speculative loads: 94.5577
L1D response latency: 311.23 cycles
Load retirement latency: 457.007 cycles


DRAM Statistics
 CHANNEL 0
 RQ ROW_BUFFER_HIT:    2884145  ROW_BUFFER_MISS:     923930
 DBUS_CONGESTED:         57
 WQ ROW_BUFFER_HIT:      14220  ROW_BUFFER_MISS:      83274  FULL:          0

 AVG_CONGESTED_CYCLE: 5
 All warmup complete: 2
Channel 0 Bank busy for read cycles: 0
Channel 0 Bank busy for write cycles: 0
Channel 0
Rank 0
0banks busy for read cycles: 117610964
0banks busy for write cycles: 48862
1banks busy for read cycles: 97984019
1banks busy for write cycles: 5058896
2banks busy for read cycles: 46035284
2banks busy for write cycles: 2250013
3banks busy for read cycles: 24536425
3banks busy for write cycles: 2370707
4banks busy for read cycles: 4282097
4banks busy for write cycles: 41993
5banks busy for read cycles: 400900
5banks busy for write cycles: 0
6banks busy for read cycles: 502
6banks busy for write cycles: 0
7banks busy for read cycles: 0
7banks busy for write cycles: 0
8banks busy for read cycles: 0
8banks busy for write cycles: 0

CPU 0 Branch Prediction Accuracy: 99.9706% MPKI: 0.00733 Average ROB Occupancy at Mispredict: 170.392
Branch types
NOT_BRANCH: 195007616 97.5038%
BRANCH_DIRECT_JUMP: 0 0%
BRANCH_INDIRECT: 0 0%
BRANCH_CONDITIONAL: 4992281 2.49614%
BRANCH_DIRECT_CALL: 0 0%
BRANCH_INDIRECT_CALL: 0 0%
BRANCH_RETURN: 0 0%
BRANCH_OTHER: 0 0%

DRAM PAGES: 1048576
Allocated PAGES: 70872
