
*** ChampSim Multicore Out-of-Order Simulator ***

Warmup Instructions: 50000000
Simulation Instructions: 200000000
Number of CPUs: 1
LLC sets: 2048
LLC ways: 16
Off-chip DRAM Size: 4096 MB Channels: 1 Width: 64-bit Data Rate: 6400 MT/s
CPU 0 runs /home/sumon/secure_berti/Berti_Baseline/../../traces/spec/603.bwaves_s-891B.champsimtrace.xz
.xz
BTB has LRU replacement policy
ITLB has LRU replacement policy
DTLB has LRU replacement policy
STLB has LRU replacement policy
L1I has LRU replacement policy
L1D has LRU replacement policy
L2C has LRU replacement policy
LLC has LRU replacement policy
Heartbeat CPU 0 instructions: 10000003 cycles: 2715421 heartbeat IPC: 3.68267 cumulative IPC: 3.68267 (Simulation time: 0 hr 0 min 17 sec) 
Heartbeat CPU 0 instructions: 20000003 cycles: 5430819 heartbeat IPC: 3.6827 cumulative IPC: 3.68269 (Simulation time: 0 hr 0 min 34 sec) 
Heartbeat CPU 0 instructions: 30000002 cycles: 8146194 heartbeat IPC: 3.68273 cumulative IPC: 3.6827 (Simulation time: 0 hr 0 min 51 sec) 
Heartbeat CPU 0 instructions: 40000000 cycles: 10861587 heartbeat IPC: 3.68271 cumulative IPC: 3.6827 (Simulation time: 0 hr 1 min 7 sec) 
Heartbeat CPU 0 instructions: 50000002 cycles: 13778226 heartbeat IPC: 3.4286 cumulative IPC: 3.62891 (Simulation time: 0 hr 1 min 21 sec) 

Warmup complete CPU 0 instructions: 50000002 cycles: 13778226 (Simulation time: 0 hr 1 min 21 sec) 

Heartbeat CPU 0 instructions: 60000003 cycles: 27599997 heartbeat IPC: 0.723496 cumulative IPC: 0.723496 (Simulation time: 0 hr 2 min 0 sec) 
Heartbeat CPU 0 instructions: 70000001 cycles: 41415858 heartbeat IPC: 0.723806 cumulative IPC: 0.723651 (Simulation time: 0 hr 2 min 40 sec) 
Heartbeat CPU 0 instructions: 80000002 cycles: 55236195 heartbeat IPC: 0.723571 cumulative IPC: 0.723624 (Simulation time: 0 hr 3 min 21 sec) 
Heartbeat CPU 0 instructions: 90000001 cycles: 69052318 heartbeat IPC: 0.723792 cumulative IPC: 0.723666 (Simulation time: 0 hr 4 min 4 sec) 
Heartbeat CPU 0 instructions: 100000002 cycles: 82867686 heartbeat IPC: 0.723832 cumulative IPC: 0.723699 (Simulation time: 0 hr 4 min 47 sec) 
Heartbeat CPU 0 instructions: 110000000 cycles: 96682591 heartbeat IPC: 0.723856 cumulative IPC: 0.723725 (Simulation time: 0 hr 5 min 28 sec) 
Heartbeat CPU 0 instructions: 120000001 cycles: 110503827 heartbeat IPC: 0.723524 cumulative IPC: 0.723697 (Simulation time: 0 hr 6 min 8 sec) 
Heartbeat CPU 0 instructions: 130000002 cycles: 124325171 heartbeat IPC: 0.723519 cumulative IPC: 0.723674 (Simulation time: 0 hr 6 min 50 sec) 
Heartbeat CPU 0 instructions: 140000001 cycles: 138151433 heartbeat IPC: 0.723261 cumulative IPC: 0.723629 (Simulation time: 0 hr 7 min 34 sec) 
Heartbeat CPU 0 instructions: 150000001 cycles: 151969640 heartbeat IPC: 0.723683 cumulative IPC: 0.723634 (Simulation time: 0 hr 8 min 17 sec) 
Heartbeat CPU 0 instructions: 160000002 cycles: 165788395 heartbeat IPC: 0.723654 cumulative IPC: 0.723636 (Simulation time: 0 hr 9 min 2 sec) 
Heartbeat CPU 0 instructions: 170000000 cycles: 179544067 heartbeat IPC: 0.726973 cumulative IPC: 0.723913 (Simulation time: 0 hr 9 min 45 sec) 
Heartbeat CPU 0 instructions: 180000002 cycles: 193167165 heartbeat IPC: 0.734048 cumulative IPC: 0.724682 (Simulation time: 0 hr 10 min 36 sec) 
Heartbeat CPU 0 instructions: 190000002 cycles: 218279101 heartbeat IPC: 0.398217 cumulative IPC: 0.684594 (Simulation time: 0 hr 11 min 28 sec) 
Heartbeat CPU 0 instructions: 200000002 cycles: 256745991 heartbeat IPC: 0.259964 cumulative IPC: 0.617366 (Simulation time: 0 hr 12 min 33 sec) 
Heartbeat CPU 0 instructions: 210000002 cycles: 295212761 heartbeat IPC: 0.259965 cumulative IPC: 0.568516 (Simulation time: 0 hr 13 min 37 sec) 
Heartbeat CPU 0 instructions: 220000000 cycles: 333679405 heartbeat IPC: 0.259965 cumulative IPC: 0.531414 (Simulation time: 0 hr 14 min 39 sec) 
Heartbeat CPU 0 instructions: 230000001 cycles: 372146327 heartbeat IPC: 0.259964 cumulative IPC: 0.502277 (Simulation time: 0 hr 15 min 41 sec) 
Heartbeat CPU 0 instructions: 240000002 cycles: 410613147 heartbeat IPC: 0.259964 cumulative IPC: 0.478788 (Simulation time: 0 hr 16 min 45 sec) 
Heartbeat CPU 0 instructions: 250000002 cycles: 449080339 heartbeat IPC: 0.259962 cumulative IPC: 0.459451 (Simulation time: 0 hr 17 min 46 sec) 
Finished CPU 0 instructions: 200000000 cycles: 435302113 cumulative IPC: 0.459451 (Simulation time: 0 hr 17 min 46 sec) 

ChampSim completed all CPUs

Region of Interest Statistics

CPU 0 cumulative IPC: 0.459451 instructions: 200000000 cycles: 435302113
ITLB TOTAL     ACCESS:   34712469  HIT:   34712468  MISS:          1  HIT %:        100  MISS %: 2.88081e-06   MPKI: 5e-06
ITLB Test counter:          0
ITLB LOAD TRANSLATION ACCESS:   34712469  HIT:   34712468  MISS:          1  HIT %:        100  MISS %: 2.88081e-06   MPKI: 5e-06
ITLB PREFETCH  REQUESTED:          0  ISSUED:          0  USEFUL:          0  USELESS:          0
ITLB USEFUL LOAD PREFETCHES:          0 PREFETCH ISSUED TO LOWER LEVEL:          0  ACCURACY: -nan
ITLB TIMELY PREFETCHES:          0 LATE PREFETCHES: 0 DROPPED PREFETCHES: 0
ITLB COMMIT LATE PREFETCHES: 0 MISSED OPPORTUNITY: 0 LATE IN PQ: 0 UNCOVERED: 0
ITLB COMMIT LATE MSHR PREFETCHES: 0
ITLB MPKI TOTAL: 0 MSHR LATE: 0 PQ LATE: 0 COMMIT LATE: 0 MISSED OPPORTUNITY: 0 UNCOVERED: 0
ITLB PREFETCHES SAME FILL-ORIGIN LEVEL: 0 DIFFERENT FILL-ORIGIN LEVEL: 0
ITLB AVERAGE MISS LATENCY: 431 cycles
ITLB AVERAGE MISS LATENCY LOAD: -nan cycles
ITLB AVERAGE MISS LATENCY PREFETCH: -nan cycles
ITLB AVERAGE MSHR OCCUPANCY: 2.88081e-08
ITLB MSHR FULL: 0
ITLB RQ	ACCESS:   35998064	FORWARD:          0	MERGED:    1285594	TO_CACHE:   34712470

DTLB TOTAL     ACCESS:   17037102  HIT:   16976448  MISS:      60654  HIT %:     99.644  MISS %:   0.356011   MPKI: 0.30327
DTLB Test counter:          0
DTLB LOAD TRANSLATION ACCESS:   17037102  HIT:   16976448  MISS:      60654  HIT %:     99.644  MISS %:   0.356011   MPKI: 0.30327
DTLB PREFETCH  REQUESTED:          0  ISSUED:          0  USEFUL:          0  USELESS:          0
DTLB USEFUL LOAD PREFETCHES:          0 PREFETCH ISSUED TO LOWER LEVEL:          0  ACCURACY: -nan
DTLB TIMELY PREFETCHES:          0 LATE PREFETCHES: 0 DROPPED PREFETCHES: 0
DTLB COMMIT LATE PREFETCHES: 0 MISSED OPPORTUNITY: 0 LATE IN PQ: 0 UNCOVERED: 0
DTLB COMMIT LATE MSHR PREFETCHES: 0
DTLB MPKI TOTAL: 0 MSHR LATE: 0 PQ LATE: 0 COMMIT LATE: 0 MISSED OPPORTUNITY: 0 UNCOVERED: 0
DTLB PREFETCHES SAME FILL-ORIGIN LEVEL: 0 DIFFERENT FILL-ORIGIN LEVEL: 0
DTLB AVERAGE MISS LATENCY: 117.072 cycles
DTLB AVERAGE MISS LATENCY LOAD: -nan cycles
DTLB AVERAGE MISS LATENCY PREFETCH: -nan cycles
DTLB AVERAGE MSHR OCCUPANCY: 0.00407796
DTLB MSHR FULL: 0
DTLB RQ	ACCESS:   17866672	FORWARD:          0	MERGED:     813036	TO_CACHE:   17053636

STLB TOTAL     ACCESS:      60655  HIT:        337  MISS:      60318  HIT %:   0.555601  MISS %:    99.4444   MPKI: 0.30159
STLB Test counter:          0
STLB LOAD TRANSLATION ACCESS:      60655  HIT:        337  MISS:      60318  HIT %:   0.555601  MISS %:    99.4444   MPKI: 0.30159
STLB PREFETCH  REQUESTED:          0  ISSUED:          0  USEFUL:          0  USELESS:          0
STLB USEFUL LOAD PREFETCHES:          0 PREFETCH ISSUED TO LOWER LEVEL:          0  ACCURACY: -nan
STLB TIMELY PREFETCHES:          0 LATE PREFETCHES: 0 DROPPED PREFETCHES: 0
STLB COMMIT LATE PREFETCHES: 0 MISSED OPPORTUNITY: 0 LATE IN PQ: 0 UNCOVERED: 0
STLB COMMIT LATE MSHR PREFETCHES: 0
STLB MPKI TOTAL: 0 MSHR LATE: 0 PQ LATE: 0 COMMIT LATE: 0 MISSED OPPORTUNITY: 0 UNCOVERED: 0
STLB PREFETCHES SAME FILL-ORIGIN LEVEL: 0 DIFFERENT FILL-ORIGIN LEVEL: 0
STLB AVERAGE MISS LATENCY: 108.681 cycles
STLB AVERAGE MISS LATENCY LOAD: -nan cycles
STLB AVERAGE MISS LATENCY PREFETCH: -nan cycles
STLB AVERAGE MSHR OCCUPANCY: 3.29734e-05
STLB MSHR FULL: 0
STLB RQ	ACCESS:      60655	FORWARD:          0	MERGED:          0	TO_CACHE:      60655

STLB Hit, L1D data hit: 0
STLB Hit, L2C data hit: 0
STLB Hit, LLC data hit: 0
STLB Hit, LLC data miss: 0
STLB STLB hints to L2: 0
L1D TOTAL     ACCESS:   12580477  HIT:    8719392  MISS:    3861085  HIT %:    69.3089  MISS %:    30.6911   MPKI: 19.3054
L1D Test counter:          0
L1D LOAD      ACCESS:   10085491  HIT:    6224408  MISS:    9147278  HIT %:    61.7165  MISS %:    38.2835   MPKI: 19.3054
L1D RFO       ACCESS:    2494986  HIT:    2494984  MISS:          2  HIT %:    99.9999  MISS %: 8.01608e-05   MPKI: 1e-05
L1D PREFETCH  REQUESTED:          0  ISSUED:          0  USEFUL:          0  USELESS:          0
L1D USEFUL LOAD PREFETCHES:          0 PREFETCH ISSUED TO LOWER LEVEL:          0  ACCURACY: -nan
L1D TIMELY PREFETCHES:          0 LATE PREFETCHES: 0 DROPPED PREFETCHES: 0
L1D COMMIT LATE PREFETCHES: 0 MISSED OPPORTUNITY: 0 LATE IN PQ: 0 UNCOVERED: 0
L1D COMMIT LATE MSHR PREFETCHES: 0
L1D MPKI TOTAL: 45.7364 MSHR LATE: 0 PQ LATE: 0 COMMIT LATE: 0 MISSED OPPORTUNITY: 0 UNCOVERED: 0
L1D PREFETCHES SAME FILL-ORIGIN LEVEL: 0 DIFFERENT FILL-ORIGIN LEVEL: 0
L1D AVERAGE MISS LATENCY: 161.537 cycles
L1D AVERAGE MISS LATENCY LOAD: 161.537 cycles
L1D AVERAGE MISS LATENCY PREFETCH: -nan cycles
L1D AVERAGE MSHR OCCUPANCY: 1.0574
L1D MSHR FULL: 0
L1D RQ	ACCESS:   35804826	FORWARD:          0	MERGED:   20433139	TO_CACHE:   15371687
L1D WQ	ACCESS:    3375822	FORWARD:          0	MERGED:     880837	TO_CACHE:    2494985

L1D UNIQUE REGIONS ACCESSED: 0
L1D REGIONS CONFLICTS: 0
L1D Cross Page Prefetch Requests: 0
L1D Same Page Prefetch Requests: 0
L1D ROI Sum of L1D PQ occupancy: 0
L1D PREFETCHES PUSHED FROM L2C: 0
4027d7: 1
40344d: 1
4026ec: 1
402746: 98
4027f6: 98
402804: 98
402730: 98
403381: 238
403400: 239
4027a4: 875162
4027a0: 875162
4033c0: 2109887
L1I TOTAL     ACCESS:   35998062  HIT:   35998055  MISS:          7  HIT %:        100  MISS %: 1.94455e-05   MPKI: 3.5e-05
L1I Test counter:          0
L1I LOAD      ACCESS:   35998062  HIT:   35998055  MISS:          8  HIT %:        100  MISS %: 1.94455e-05   MPKI: 3.5e-05
L1I PREFETCH  REQUESTED:          0  ISSUED:          0  USEFUL:          0  USELESS:          0
L1I USEFUL LOAD PREFETCHES:          0 PREFETCH ISSUED TO LOWER LEVEL:          0  ACCURACY: -nan
L1I TIMELY PREFETCHES:          0 LATE PREFETCHES: 0 DROPPED PREFETCHES: 0
L1I COMMIT LATE PREFETCHES: 0 MISSED OPPORTUNITY: 0 LATE IN PQ: 0 UNCOVERED: 0
L1I COMMIT LATE MSHR PREFETCHES: 0
L1I MPKI TOTAL: 4e-05 MSHR LATE: 0 PQ LATE: 0 COMMIT LATE: 0 MISSED OPPORTUNITY: 0 UNCOVERED: 0
L1I PREFETCHES SAME FILL-ORIGIN LEVEL: 0 DIFFERENT FILL-ORIGIN LEVEL: 0
L1I AVERAGE MISS LATENCY: 214.143 cycles
L1I AVERAGE MISS LATENCY LOAD: 214.143 cycles
L1I AVERAGE MISS LATENCY PREFETCH: -nan cycles
L1I AVERAGE MSHR OCCUPANCY: 1.38896e-07
L1I MSHR FULL: 0
L1I RQ	ACCESS:   44627765	FORWARD:          0	MERGED:    8629701	TO_CACHE:   35998064

402781: 1
403444: 1
402801: 1
4026e0: 1
402702: 1
402746: 1
4027c3: 1
BTB TOTAL     ACCESS:   30088235  HIT:   30088224  MISS:         11  HIT %:        100  MISS %: 3.65591e-05   MPKI: 5.5e-05
BTB Test counter:          0
BTB BRANCH_DIRECT_JUMP	ACCESS:    1387299  HIT:    1387297  MISS:          2
BTB BRANCH_INDIRECT	ACCESS:          0  HIT:          0  MISS:          0
BTB BRANCH_CONDITIONAL	ACCESS:   28700936  HIT:   28700927  MISS:          9
BTB BRANCH_DIRECT_CALL	ACCESS:          0  HIT:          0  MISS:          0
BTB BRANCH_INDIRECT_CALL	ACCESS:          0  HIT:          0  MISS:          0
BTB BRANCH_RETURN	ACCESS:          0  HIT:          0  MISS:          0
BTB BRANCH_OTHER ACCESS:          0  HIT:          0  MISS:          0

L2C TOTAL     ACCESS:    3921453  HIT:      52740  MISS:    3868713  HIT %:    1.34491  MISS %:    98.6551   MPKI: 19.3436
L2C Test counter:          0
L2C LOAD      ACCESS:    3861090  HIT:         45  MISS:    3861045  HIT %: 0.00116547  MISS %:    99.9988   MPKI: 19.3052
L2C DATA LOAD MPKI: 19.3052
L2C INSTRUCTION LOAD MPKI: 3.5e-05
L2C RFO       ACCESS:          2  HIT:          0  MISS:          2  HIT %:          0  MISS %:        100   MPKI: 1e-05
L2C WRITEBACK ACCESS:          4  HIT:          1  MISS:          3  HIT %:         25  MISS %:         75   MPKI: 1.5e-05
L2C LOAD TRANSLATION ACCESS:      60357  HIT:      52694  MISS:       7663  HIT %:    87.3039  MISS %:    12.6961   MPKI: 0.038315
L2C PREFETCH  REQUESTED:          0  ISSUED:          0  USEFUL:          0  USELESS:          0
L2C USEFUL LOAD PREFETCHES:          0 PREFETCH ISSUED TO LOWER LEVEL:          0  ACCURACY: -nan
L2C TIMELY PREFETCHES:          0 LATE PREFETCHES: 0 DROPPED PREFETCHES: 0
L2C COMMIT LATE PREFETCHES: 0 MISSED OPPORTUNITY: 0 LATE IN PQ: 0 UNCOVERED: 0
L2C COMMIT LATE MSHR PREFETCHES: 0
L2C MPKI TOTAL: 19.3052 MSHR LATE: 0 PQ LATE: 0 COMMIT LATE: 0 MISSED OPPORTUNITY: 0 UNCOVERED: 0
L2C PREFETCHES SAME FILL-ORIGIN LEVEL: 0 DIFFERENT FILL-ORIGIN LEVEL: 0
L2C AVERAGE MISS LATENCY: 146.577 cycles
L2C AVERAGE MISS LATENCY LOAD: 146.47 cycles
L2C AVERAGE MISS LATENCY PREFETCH: -nan cycles
L2C AVERAGE MSHR OCCUPANCY: 0.649911
L2C MSHR FULL: 0
L2C RQ	ACCESS:    3921449	FORWARD:          0	MERGED:          0	TO_CACHE:    3921449
L2C WQ	ACCESS:          4	FORWARD:          0	MERGED:          0	TO_CACHE:          4

L2C Instructions Evicting Data 7
L2C Translations Evicting Data 7663
L2C Data Evicting Data 3853369
L2C Instructions Evicting Instructions 0
L2C Translations Evicting Instructions 0
L2C Data Evicting Instructions 7
L2C Instructions Evicting Translations 0
L2C Translations Evicting Translations 0
L2C Data Evicting Translations 7664
L2C Dense regions hint from L2: 0
403444: 1
4027d7: 1
4027c3: 1
402781: 1
402801: 1
402702: 1
4026e0: 1
40344d: 1
402804: 98
4027f6: 98
402730: 98
402746: 99
403400: 214
403381: 219
4027a0: 875162
4027a4: 875162
4033c0: 2109887
PSCL5 TOTAL     ACCESS:      60318  HIT:      60318  MISS:          0  HIT %:        100  MISS %:          0   MPKI: 0
PSCL5 Test counter:          0
PSCL5 LOAD TRANSLATION ACCESS:      60318  HIT:      60318  MISS:          0  HIT %:        100  MISS %:          0   MPKI: 0
PSCL5 PREFETCH  REQUESTED:          0  ISSUED:          0  USEFUL:          0  USELESS:          0
PSCL5 USEFUL LOAD PREFETCHES:          0 PREFETCH ISSUED TO LOWER LEVEL:          0  ACCURACY: -nan
PSCL5 TIMELY PREFETCHES:          0 LATE PREFETCHES: 0 DROPPED PREFETCHES: 0
PSCL5 COMMIT LATE PREFETCHES: 0 MISSED OPPORTUNITY: 0 LATE IN PQ: 0 UNCOVERED: 0
PSCL5 COMMIT LATE MSHR PREFETCHES: 0
PSCL5 MPKI TOTAL: 0 MSHR LATE: 0 PQ LATE: 0 COMMIT LATE: 0 MISSED OPPORTUNITY: 0 UNCOVERED: 0
PSCL5 PREFETCHES SAME FILL-ORIGIN LEVEL: 0 DIFFERENT FILL-ORIGIN LEVEL: 0

PSCL4 TOTAL     ACCESS:      60318  HIT:      60318  MISS:          0  HIT %:        100  MISS %:          0   MPKI: 0
PSCL4 Test counter:          0
PSCL4 LOAD TRANSLATION ACCESS:      60318  HIT:      60318  MISS:          0  HIT %:        100  MISS %:          0   MPKI: 0
PSCL4 PREFETCH  REQUESTED:          0  ISSUED:          0  USEFUL:          0  USELESS:          0
PSCL4 USEFUL LOAD PREFETCHES:          0 PREFETCH ISSUED TO LOWER LEVEL:          0  ACCURACY: -nan
PSCL4 TIMELY PREFETCHES:          0 LATE PREFETCHES: 0 DROPPED PREFETCHES: 0
PSCL4 COMMIT LATE PREFETCHES: 0 MISSED OPPORTUNITY: 0 LATE IN PQ: 0 UNCOVERED: 0
PSCL4 COMMIT LATE MSHR PREFETCHES: 0
PSCL4 MPKI TOTAL: 0 MSHR LATE: 0 PQ LATE: 0 COMMIT LATE: 0 MISSED OPPORTUNITY: 0 UNCOVERED: 0
PSCL4 PREFETCHES SAME FILL-ORIGIN LEVEL: 0 DIFFERENT FILL-ORIGIN LEVEL: 0

PSCL3 TOTAL     ACCESS:      60318  HIT:      60318  MISS:          0  HIT %:        100  MISS %:          0   MPKI: 0
PSCL3 Test counter:          0
PSCL3 LOAD TRANSLATION ACCESS:      60318  HIT:      60318  MISS:          0  HIT %:        100  MISS %:          0   MPKI: 0
PSCL3 PREFETCH  REQUESTED:          0  ISSUED:          0  USEFUL:          0  USELESS:          0
PSCL3 USEFUL LOAD PREFETCHES:          0 PREFETCH ISSUED TO LOWER LEVEL:          0  ACCURACY: -nan
PSCL3 TIMELY PREFETCHES:          0 LATE PREFETCHES: 0 DROPPED PREFETCHES: 0
PSCL3 COMMIT LATE PREFETCHES: 0 MISSED OPPORTUNITY: 0 LATE IN PQ: 0 UNCOVERED: 0
PSCL3 COMMIT LATE MSHR PREFETCHES: 0
PSCL3 MPKI TOTAL: 0 MSHR LATE: 0 PQ LATE: 0 COMMIT LATE: 0 MISSED OPPORTUNITY: 0 UNCOVERED: 0
PSCL3 PREFETCHES SAME FILL-ORIGIN LEVEL: 0 DIFFERENT FILL-ORIGIN LEVEL: 0

PSCL2 TOTAL     ACCESS:      60318  HIT:      60198  MISS:        120  HIT %:    99.8011  MISS %:   0.198946   MPKI: 0.0006
PSCL2 Test counter:          0
PSCL2 LOAD TRANSLATION ACCESS:      60318  HIT:      60198  MISS:        120  HIT %:    99.8011  MISS %:   0.198946   MPKI: 0.0006
PSCL2 PREFETCH  REQUESTED:          0  ISSUED:          0  USEFUL:          0  USELESS:          0
PSCL2 USEFUL LOAD PREFETCHES:          0 PREFETCH ISSUED TO LOWER LEVEL:          0  ACCURACY: -nan
PSCL2 TIMELY PREFETCHES:          0 LATE PREFETCHES: 0 DROPPED PREFETCHES: 0
PSCL2 COMMIT LATE PREFETCHES: 0 MISSED OPPORTUNITY: 0 LATE IN PQ: 0 UNCOVERED: 0
PSCL2 COMMIT LATE MSHR PREFETCHES: 0
PSCL2 MPKI TOTAL: 0 MSHR LATE: 0 PQ LATE: 0 COMMIT LATE: 0 MISSED OPPORTUNITY: 0 UNCOVERED: 0
PSCL2 PREFETCHES SAME FILL-ORIGIN LEVEL: 0 DIFFERENT FILL-ORIGIN LEVEL: 0

LLC TOTAL     ACCESS:    3868714  HIT:        837  MISS:    3867877  HIT %:  0.0216351  MISS %:    99.9784   MPKI: 19.3394
LLC Test counter:          0
LLC LOAD      ACCESS:    3861045  HIT:        824  MISS:    3860221  HIT %:  0.0213414  MISS %:    99.9787   MPKI: 19.3011
LLC RFO       ACCESS:          2  HIT:          0  MISS:          2  HIT %:          0  MISS %:        100   MPKI: 1e-05
LLC WRITEBACK ACCESS:          4  HIT:          1  MISS:          3  HIT %:         25  MISS %:         75   MPKI: 1.5e-05
LLC LOAD TRANSLATION ACCESS:       7663  HIT:         12  MISS:       7651  HIT %:   0.156597  MISS %:    99.8434   MPKI: 0.038255
LLC PREFETCH  REQUESTED:          0  ISSUED:          0  USEFUL:          0  USELESS:          0
LLC USEFUL LOAD PREFETCHES:          0 PREFETCH ISSUED TO LOWER LEVEL:          0  ACCURACY: -nan
LLC TIMELY PREFETCHES:          0 LATE PREFETCHES: 0 DROPPED PREFETCHES: 0
LLC COMMIT LATE PREFETCHES: 0 MISSED OPPORTUNITY: 0 LATE IN PQ: 0 UNCOVERED: 0
LLC COMMIT LATE MSHR PREFETCHES: 0
LLC MPKI TOTAL: 19.3011 MSHR LATE: 0 PQ LATE: 0 COMMIT LATE: 0 MISSED OPPORTUNITY: 0 UNCOVERED: 0
LLC PREFETCHES SAME FILL-ORIGIN LEVEL: 0 DIFFERENT FILL-ORIGIN LEVEL: 0
LLC AVERAGE MISS LATENCY: 116.24 cycles
LLC AVERAGE MISS LATENCY LOAD: 116.132 cycles
LLC AVERAGE MISS LATENCY PREFETCH: -nan cycles
LLC AVERAGE MSHR OCCUPANCY: 0.381098
LLC MSHR FULL: 0
LLC RQ	ACCESS:    3868710	FORWARD:          0	MERGED:          0	TO_CACHE:    3868710
LLC WQ	ACCESS:          4	FORWARD:          0	MERGED:          0	TO_CACHE:          4

LLC Dense regions hint to LLC: 0
4027d7: 1
4027f6: 1
4027c3: 1
402781: 1
403444: 1
40344d: 1
402801: 1
402702: 1
4026e0: 1
402746: 1
4027a4: 875162
4027a0: 875162
4033c0: 2109887

RAW hits: 1
Loads Generated: 35804828
Loads sent to L1D: 35804826
Stores Generated: 3375822
Stores sent to L1D: 3375822
Major fault: 0 Minor fault: 62153
Allocated PAGES: 62153
Total Load insts: 43896023
Total Non-spec loads: 2859715
Percentage of speculative loads: 93.4853
L1D response latency: 161.537 cycles
Load retirement latency: 199.647 cycles


DRAM Statistics
 CHANNEL 0
 RQ ROW_BUFFER_HIT:    2079595  ROW_BUFFER_MISS:    1788279
 DBUS_CONGESTED:          0
 WQ ROW_BUFFER_HIT:          2  ROW_BUFFER_MISS:          0  FULL:          0

 AVG_CONGESTED_CYCLE: -
 All warmup complete: 2
Channel 0 Bank busy for read cycles: 0
Channel 0 Bank busy for write cycles: 0
Channel 0
Rank 0
0banks busy for read cycles: 170350988
0banks busy for write cycles: 2
1banks busy for read cycles: 158284678
1banks busy for write cycles: 713
2banks busy for read cycles: 106060359
2banks busy for write cycles: 0
3banks busy for read cycles: 605273
3banks busy for write cycles: 0
4banks busy for read cycles: 101
4banks busy for write cycles: 0
5banks busy for read cycles: 0
5banks busy for write cycles: 0
6banks busy for read cycles: 0
6banks busy for write cycles: 0
7banks busy for read cycles: 0
7banks busy for write cycles: 0
8banks busy for read cycles: 0
8banks busy for write cycles: 0

CPU 0 Branch Prediction Accuracy: 99.8669% MPKI: 0.223155 Average ROB Occupancy at Mispredict: 161.902
Branch types
NOT_BRANCH: 166478615 83.2393%
BRANCH_DIRECT_JUMP: 1387299 0.69365%
BRANCH_INDIRECT: 0 0%
BRANCH_CONDITIONAL: 32134388 16.0672%
BRANCH_DIRECT_CALL: 0 0%
BRANCH_INDIRECT_CALL: 0 0%
BRANCH_RETURN: 0 0%
BRANCH_OTHER: 0 0%

DRAM PAGES: 1048576
Allocated PAGES: 62153
