
*** ChampSim Multicore Out-of-Order Simulator ***

Warmup Instructions: 50000000
Simulation Instructions: 200000000
Number of CPUs: 1
LLC sets: 2048
LLC ways: 16
Off-chip DRAM Size: 4096 MB Channels: 1 Width: 64-bit Data Rate: 6400 MT/s
CPU 0 runs /home/sumon/secure_berti/Berti_Baseline/../../traces/spec/603.bwaves_s-2931B.champsimtrace.xz
.xz
BTB has LRU replacement policy
ITLB has LRU replacement policy
DTLB has LRU replacement policy
STLB has LRU replacement policy
L1I has LRU replacement policy
L1D has LRU replacement policy
L2C has LRU replacement policy
LLC has LRU replacement policy
Heartbeat CPU 0 instructions: 10000003 cycles: 2951984 heartbeat IPC: 3.38755 cumulative IPC: 3.38755 (Simulation time: 0 hr 0 min 38 sec) 
Heartbeat CPU 0 instructions: 20000003 cycles: 5903568 heartbeat IPC: 3.38801 cumulative IPC: 3.38778 (Simulation time: 0 hr 1 min 18 sec) 
Heartbeat CPU 0 instructions: 30000003 cycles: 8855176 heartbeat IPC: 3.38798 cumulative IPC: 3.38785 (Simulation time: 0 hr 2 min 0 sec) 
Heartbeat CPU 0 instructions: 40000002 cycles: 11806818 heartbeat IPC: 3.38794 cumulative IPC: 3.38787 (Simulation time: 0 hr 2 min 43 sec) 
Heartbeat CPU 0 instructions: 50000003 cycles: 14758560 heartbeat IPC: 3.38783 cumulative IPC: 3.38786 (Simulation time: 0 hr 3 min 23 sec) 

Warmup complete CPU 0 instructions: 50000003 cycles: 14758560 (Simulation time: 0 hr 3 min 23 sec) 

Heartbeat CPU 0 instructions: 60000003 cycles: 27369754 heartbeat IPC: 0.792946 cumulative IPC: 0.792946 (Simulation time: 0 hr 4 min 19 sec) 
Heartbeat CPU 0 instructions: 70000002 cycles: 40210126 heartbeat IPC: 0.778794 cumulative IPC: 0.785806 (Simulation time: 0 hr 5 min 18 sec) 
Heartbeat CPU 0 instructions: 80000003 cycles: 53018204 heartbeat IPC: 0.780757 cumulative IPC: 0.784116 (Simulation time: 0 hr 6 min 14 sec) 
Heartbeat CPU 0 instructions: 90000000 cycles: 65861280 heartbeat IPC: 0.778629 cumulative IPC: 0.782737 (Simulation time: 0 hr 7 min 19 sec) 
Heartbeat CPU 0 instructions: 100000002 cycles: 78608344 heartbeat IPC: 0.784495 cumulative IPC: 0.783088 (Simulation time: 0 hr 8 min 18 sec) 
Heartbeat CPU 0 instructions: 110000000 cycles: 91665259 heartbeat IPC: 0.765878 cumulative IPC: 0.780166 (Simulation time: 0 hr 9 min 14 sec) 
Heartbeat CPU 0 instructions: 120000000 cycles: 105040739 heartbeat IPC: 0.747637 cumulative IPC: 0.775347 (Simulation time: 0 hr 10 min 22 sec) 
Heartbeat CPU 0 instructions: 130000000 cycles: 118407324 heartbeat IPC: 0.748134 cumulative IPC: 0.771837 (Simulation time: 0 hr 11 min 20 sec) 
Heartbeat CPU 0 instructions: 140000002 cycles: 131755379 heartbeat IPC: 0.749173 cumulative IPC: 0.769252 (Simulation time: 0 hr 12 min 29 sec) 
Heartbeat CPU 0 instructions: 150000003 cycles: 145073907 heartbeat IPC: 0.750834 cumulative IPC: 0.767369 (Simulation time: 0 hr 13 min 30 sec) 
Heartbeat CPU 0 instructions: 160000001 cycles: 158451054 heartbeat IPC: 0.747543 cumulative IPC: 0.765524 (Simulation time: 0 hr 14 min 35 sec) 
Heartbeat CPU 0 instructions: 170000001 cycles: 171747929 heartbeat IPC: 0.752056 cumulative IPC: 0.764383 (Simulation time: 0 hr 15 min 33 sec) 
Heartbeat CPU 0 instructions: 180000000 cycles: 185123845 heartbeat IPC: 0.747612 cumulative IPC: 0.763066 (Simulation time: 0 hr 16 min 35 sec) 
Heartbeat CPU 0 instructions: 190000002 cycles: 198450621 heartbeat IPC: 0.750369 cumulative IPC: 0.762145 (Simulation time: 0 hr 17 min 35 sec) 
Heartbeat CPU 0 instructions: 200000000 cycles: 211780793 heartbeat IPC: 0.750178 cumulative IPC: 0.761335 (Simulation time: 0 hr 19 min 21 sec) 
Heartbeat CPU 0 instructions: 210000002 cycles: 225094220 heartbeat IPC: 0.751122 cumulative IPC: 0.760689 (Simulation time: 0 hr 21 min 15 sec) 
Heartbeat CPU 0 instructions: 220000000 cycles: 238472826 heartbeat IPC: 0.747462 cumulative IPC: 0.759898 (Simulation time: 0 hr 23 min 17 sec) 
Heartbeat CPU 0 instructions: 230000000 cycles: 251846384 heartbeat IPC: 0.747744 cumulative IPC: 0.759212 (Simulation time: 0 hr 25 min 2 sec) 
Heartbeat CPU 0 instructions: 240000000 cycles: 265127794 heartbeat IPC: 0.752932 cumulative IPC: 0.758879 (Simulation time: 0 hr 27 min 30 sec) 
Heartbeat CPU 0 instructions: 250000001 cycles: 278445149 heartbeat IPC: 0.7509 cumulative IPC: 0.758476 (Simulation time: 0 hr 29 min 50 sec) 
Finished CPU 0 instructions: 200000002 cycles: 263686590 cumulative IPC: 0.758476 (Simulation time: 0 hr 29 min 50 sec) 

ChampSim completed all CPUs

Region of Interest Statistics

CPU 0 cumulative IPC: 0.758476 instructions: 200000002 cycles: 263686590
ITLB TOTAL     ACCESS:   25600907  HIT:   25600907  MISS:          0  HIT %:        100  MISS %:          0   MPKI: 0
ITLB Test counter:          0
ITLB LOAD TRANSLATION ACCESS:   25600907  HIT:   25600907  MISS:          0  HIT %:        100  MISS %:          0   MPKI: 0
ITLB PREFETCH  REQUESTED:          0  ISSUED:          0  USEFUL:          0  USELESS:          0
ITLB USEFUL LOAD PREFETCHES:          0 PREFETCH ISSUED TO LOWER LEVEL:          0  ACCURACY: -nan
ITLB TIMELY PREFETCHES:          0 LATE PREFETCHES: 0 DROPPED PREFETCHES: 0
ITLB COMMIT LATE PREFETCHES: 0 MISSED OPPORTUNITY: 0 LATE IN PQ: 0 UNCOVERED: 0
ITLB COMMIT LATE MSHR PREFETCHES: 0
ITLB MPKI TOTAL: 0 MSHR LATE: 0 PQ LATE: 0 COMMIT LATE: 0 MISSED OPPORTUNITY: 0 UNCOVERED: 0
ITLB PREFETCHES SAME FILL-ORIGIN LEVEL: 0 DIFFERENT FILL-ORIGIN LEVEL: 0
ITLB AVERAGE MISS LATENCY: -nan cycles
ITLB AVERAGE MISS LATENCY LOAD: -nan cycles
ITLB AVERAGE MISS LATENCY PREFETCH: -nan cycles
ITLB AVERAGE MSHR OCCUPANCY: 0
ITLB MSHR FULL: 0
ITLB RQ	ACCESS:   29446557	FORWARD:          0	MERGED:    3845650	TO_CACHE:   25600907

DTLB TOTAL     ACCESS:   43833444  HIT:   43528838  MISS:     304606  HIT %:    99.3051  MISS %:   0.694917   MPKI: 1.52303
DTLB Test counter:          0
DTLB LOAD TRANSLATION ACCESS:   43833444  HIT:   43528838  MISS:     304606  HIT %:    99.3051  MISS %:   0.694917   MPKI: 1.52303
DTLB PREFETCH  REQUESTED:          0  ISSUED:          0  USEFUL:          0  USELESS:          0
DTLB USEFUL LOAD PREFETCHES:          0 PREFETCH ISSUED TO LOWER LEVEL:          0  ACCURACY: -nan
DTLB TIMELY PREFETCHES:          0 LATE PREFETCHES: 0 DROPPED PREFETCHES: 0
DTLB COMMIT LATE PREFETCHES: 0 MISSED OPPORTUNITY: 0 LATE IN PQ: 0 UNCOVERED: 0
DTLB COMMIT LATE MSHR PREFETCHES: 0
DTLB MPKI TOTAL: 0 MSHR LATE: 0 PQ LATE: 0 COMMIT LATE: 0 MISSED OPPORTUNITY: 0 UNCOVERED: 0
DTLB PREFETCHES SAME FILL-ORIGIN LEVEL: 0 DIFFERENT FILL-ORIGIN LEVEL: 0
DTLB AVERAGE MISS LATENCY: 56.3509 cycles
DTLB AVERAGE MISS LATENCY LOAD: -nan cycles
DTLB AVERAGE MISS LATENCY PREFETCH: -nan cycles
DTLB AVERAGE MSHR OCCUPANCY: 0.0492334
DTLB MSHR FULL: 0
DTLB RQ	ACCESS:   66643691	FORWARD:          0	MERGED:   22793341	TO_CACHE:   43850350

STLB TOTAL     ACCESS:     304606  HIT:     262002  MISS:      42604  HIT %:    86.0134  MISS %:    13.9866   MPKI: 0.21302
STLB Test counter:          0
STLB LOAD TRANSLATION ACCESS:     304606  HIT:     262002  MISS:      42604  HIT %:    86.0134  MISS %:    13.9866   MPKI: 0.21302
STLB PREFETCH  REQUESTED:          0  ISSUED:          0  USEFUL:          0  USELESS:          0
STLB USEFUL LOAD PREFETCHES:          0 PREFETCH ISSUED TO LOWER LEVEL:          0  ACCURACY: -nan
STLB TIMELY PREFETCHES:          0 LATE PREFETCHES: 0 DROPPED PREFETCHES: 0
STLB COMMIT LATE PREFETCHES: 0 MISSED OPPORTUNITY: 0 LATE IN PQ: 0 UNCOVERED: 0
STLB COMMIT LATE MSHR PREFETCHES: 0
STLB MPKI TOTAL: 0 MSHR LATE: 0 PQ LATE: 0 COMMIT LATE: 0 MISSED OPPORTUNITY: 0 UNCOVERED: 0
STLB PREFETCHES SAME FILL-ORIGIN LEVEL: 0 DIFFERENT FILL-ORIGIN LEVEL: 0
STLB AVERAGE MISS LATENCY: 332.118 cycles
STLB AVERAGE MISS LATENCY LOAD: -nan cycles
STLB AVERAGE MISS LATENCY PREFETCH: -nan cycles
STLB AVERAGE MSHR OCCUPANCY: 0.215176
STLB MSHR FULL: 0
STLB RQ	ACCESS:     304606	FORWARD:          0	MERGED:          0	TO_CACHE:     304606

STLB Hit, L1D data hit: 0
STLB Hit, L2C data hit: 0
STLB Hit, LLC data hit: 0
STLB Hit, LLC data miss: 0
STLB STLB hints to L2: 0
L1D TOTAL     ACCESS:   63373772  HIT:   59991907  MISS:    3381865  HIT %:    94.6636  MISS %:    5.33638   MPKI: 16.9093
L1D Test counter:          0
L1D LOAD      ACCESS:   29675390  HIT:   27545546  MISS:    2586963  HIT %:    92.8229  MISS %:    7.17714   MPKI: 10.6492
L1D RFO       ACCESS:   33698382  HIT:   32446361  MISS:    1252021  HIT %:    96.2846  MISS %:    3.71537   MPKI: 6.2601
L1D PREFETCH  REQUESTED:          0  ISSUED:          0  USEFUL:          0  USELESS:          0
L1D USEFUL LOAD PREFETCHES:          0 PREFETCH ISSUED TO LOWER LEVEL:          0  ACCURACY: -nan
L1D TIMELY PREFETCHES:          0 LATE PREFETCHES: 0 DROPPED PREFETCHES: 0
L1D COMMIT LATE PREFETCHES: 0 MISSED OPPORTUNITY: 0 LATE IN PQ: 0 UNCOVERED: 0
L1D COMMIT LATE MSHR PREFETCHES: 0
L1D MPKI TOTAL: 12.9348 MSHR LATE: 0 PQ LATE: 0 COMMIT LATE: 0 MISSED OPPORTUNITY: 0 UNCOVERED: 0
L1D PREFETCHES SAME FILL-ORIGIN LEVEL: 0 DIFFERENT FILL-ORIGIN LEVEL: 0
L1D AVERAGE MISS LATENCY: 260.919 cycles
L1D AVERAGE MISS LATENCY LOAD: 203.045 cycles
L1D AVERAGE MISS LATENCY PREFETCH: -nan cycles
L1D AVERAGE MSHR OCCUPANCY: 3.32887
L1D MSHR FULL: 0
L1D RQ	ACCESS:   45438388	FORWARD:          0	MERGED:   14274526	TO_CACHE:   30132507
L1D WQ	ACCESS:   36649060	FORWARD:    1031355	MERGED:     137876	TO_CACHE:   36511184

L1D UNIQUE REGIONS ACCESSED: 0
L1D REGIONS CONFLICTS: 0
L1D Cross Page Prefetch Requests: 0
L1D Same Page Prefetch Requests: 0
L1D ROI Sum of L1D PQ occupancy: 0
L1D PREFETCHES PUSHED FROM L2C: 0
408f37: 1
408f1e: 3
409a4b: 4
409a10: 4
409a1b: 4
4094f5: 18
40912a: 51
409507: 191
409074: 449
409947: 504
4099fd: 504
40993c: 504
409068: 504
40906c: 504
409555: 1047
40981b: 2907
409889: 2975
409826: 2977
40990f: 2995
40973a: 3296
409775: 3343
409486: 12908
4095da: 170110
4094bd: 170110
4095a9: 170118
40957b: 170118
4094a2: 170118
40950f: 171117
409543: 171118
40949c: 171498
4094c5: 174831
409475: 179309
409479: 180967
40960f: 194737
L1I TOTAL     ACCESS:   29446556  HIT:   29446556  MISS:          0  HIT %:        100  MISS %:          0   MPKI: 0
L1I Test counter:          0
L1I LOAD      ACCESS:   29446556  HIT:   29446556  MISS:          0  HIT %:        100  MISS %:          0   MPKI: 0
L1I PREFETCH  REQUESTED:          0  ISSUED:          0  USEFUL:          0  USELESS:          0
L1I USEFUL LOAD PREFETCHES:          0 PREFETCH ISSUED TO LOWER LEVEL:          0  ACCURACY: -nan
L1I TIMELY PREFETCHES:          0 LATE PREFETCHES: 0 DROPPED PREFETCHES: 0
L1I COMMIT LATE PREFETCHES: 0 MISSED OPPORTUNITY: 0 LATE IN PQ: 0 UNCOVERED: 0
L1I COMMIT LATE MSHR PREFETCHES: 0
L1I MPKI TOTAL: 0 MSHR LATE: 0 PQ LATE: 0 COMMIT LATE: 0 MISSED OPPORTUNITY: 0 UNCOVERED: 0
L1I PREFETCHES SAME FILL-ORIGIN LEVEL: 0 DIFFERENT FILL-ORIGIN LEVEL: 0
L1I AVERAGE MISS LATENCY: -nan cycles
L1I AVERAGE MISS LATENCY LOAD: -nan cycles
L1I AVERAGE MISS LATENCY PREFETCH: -nan cycles
L1I AVERAGE MSHR OCCUPANCY: 0
L1I MSHR FULL: 0
L1I RQ	ACCESS:   45140510	FORWARD:          0	MERGED:   15693953	TO_CACHE:   29446557

BTB TOTAL     ACCESS:    1687995  HIT:    1687990  MISS:          5  HIT %:    99.9997  MISS %: 0.000296209   MPKI: 2.5e-05
BTB Test counter:          0
BTB BRANCH_DIRECT_JUMP	ACCESS:          0  HIT:          0  MISS:          0
BTB BRANCH_INDIRECT	ACCESS:          0  HIT:          0  MISS:          0
BTB BRANCH_CONDITIONAL	ACCESS:    1687995  HIT:    1687990  MISS:          5
BTB BRANCH_DIRECT_CALL	ACCESS:          0  HIT:          0  MISS:          0
BTB BRANCH_INDIRECT_CALL	ACCESS:          0  HIT:          0  MISS:          0
BTB BRANCH_RETURN	ACCESS:          0  HIT:          0  MISS:          0
BTB BRANCH_OTHER ACCESS:          0  HIT:          0  MISS:          0

L2C TOTAL     ACCESS:    4669237  HIT:    1752455  MISS:    2916782  HIT %:    37.5319  MISS %:    62.4681   MPKI: 14.5839
L2C Test counter:          0
L2C LOAD      ACCESS:    2129719  HIT:     409670  MISS:    1720049  HIT %:    19.2359  MISS %:    80.7641   MPKI: 8.60024
L2C DATA LOAD MPKI: 8.60024
L2C INSTRUCTION LOAD MPKI: 0
L2C RFO       ACCESS:    1228134  HIT:      37365  MISS:    1190769  HIT %:    3.04242  MISS %:    96.9576   MPKI: 5.95384
L2C WRITEBACK ACCESS:    1268749  HIT:    1268244  MISS:        505  HIT %:    99.9602  MISS %:   0.039803   MPKI: 0.002525
L2C LOAD TRANSLATION ACCESS:      42635  HIT:      37176  MISS:       5459  HIT %:     87.196  MISS %:     12.804   MPKI: 0.027295
L2C PREFETCH  REQUESTED:          0  ISSUED:          0  USEFUL:          0  USELESS:          0
L2C USEFUL LOAD PREFETCHES:          0 PREFETCH ISSUED TO LOWER LEVEL:          0  ACCURACY: -nan
L2C TIMELY PREFETCHES:          0 LATE PREFETCHES: 0 DROPPED PREFETCHES: 0
L2C COMMIT LATE PREFETCHES: 0 MISSED OPPORTUNITY: 0 LATE IN PQ: 0 UNCOVERED: 0
L2C COMMIT LATE MSHR PREFETCHES: 0
L2C MPKI TOTAL: 8.60024 MSHR LATE: 0 PQ LATE: 0 COMMIT LATE: 0 MISSED OPPORTUNITY: 0 UNCOVERED: 0
L2C PREFETCHES SAME FILL-ORIGIN LEVEL: 0 DIFFERENT FILL-ORIGIN LEVEL: 0
L2C AVERAGE MISS LATENCY: 284.683 cycles
L2C AVERAGE MISS LATENCY LOAD: 232.044 cycles
L2C AVERAGE MISS LATENCY PREFETCH: -nan cycles
L2C AVERAGE MSHR OCCUPANCY: 3.27471
L2C MSHR FULL: 0
L2C RQ	ACCESS:    3424501	FORWARD:          0	MERGED:          0	TO_CACHE:    3400489
L2C WQ	ACCESS:    1268749	FORWARD:      24012	MERGED:          0	TO_CACHE:    1268749

L2C Instructions Evicting Data 0
L2C Translations Evicting Data 5457
L2C Data Evicting Data 2905364
L2C Instructions Evicting Instructions 0
L2C Translations Evicting Instructions 0
L2C Data Evicting Instructions 0
L2C Instructions Evicting Translations 0
L2C Translations Evicting Translations 2
L2C Data Evicting Translations 5454
L2C Dense regions hint from L2: 0
409a10: 4
409a4b: 4
409a1b: 4
40912a: 19
409074: 30
409068: 60
409947: 70
4099fd: 70
40993c: 71
409555: 72
40906c: 118
409486: 2016
409543: 3024
4094a2: 18414
40950f: 167275
409479: 168170
4095a9: 169853
409475: 170109
4094c5: 170109
40949c: 170109
40960f: 170110
4095da: 170110
4094bd: 170110
40957b: 170118
PSCL5 TOTAL     ACCESS:      42604  HIT:      42604  MISS:          0  HIT %:        100  MISS %:          0   MPKI: 0
PSCL5 Test counter:          0
PSCL5 LOAD TRANSLATION ACCESS:      42604  HIT:      42604  MISS:          0  HIT %:        100  MISS %:          0   MPKI: 0
PSCL5 PREFETCH  REQUESTED:          0  ISSUED:          0  USEFUL:          0  USELESS:          0
PSCL5 USEFUL LOAD PREFETCHES:          0 PREFETCH ISSUED TO LOWER LEVEL:          0  ACCURACY: -nan
PSCL5 TIMELY PREFETCHES:          0 LATE PREFETCHES: 0 DROPPED PREFETCHES: 0
PSCL5 COMMIT LATE PREFETCHES: 0 MISSED OPPORTUNITY: 0 LATE IN PQ: 0 UNCOVERED: 0
PSCL5 COMMIT LATE MSHR PREFETCHES: 0
PSCL5 MPKI TOTAL: 0 MSHR LATE: 0 PQ LATE: 0 COMMIT LATE: 0 MISSED OPPORTUNITY: 0 UNCOVERED: 0
PSCL5 PREFETCHES SAME FILL-ORIGIN LEVEL: 0 DIFFERENT FILL-ORIGIN LEVEL: 0

PSCL4 TOTAL     ACCESS:      42604  HIT:      42604  MISS:          0  HIT %:        100  MISS %:          0   MPKI: 0
PSCL4 Test counter:          0
PSCL4 LOAD TRANSLATION ACCESS:      42604  HIT:      42604  MISS:          0  HIT %:        100  MISS %:          0   MPKI: 0
PSCL4 PREFETCH  REQUESTED:          0  ISSUED:          0  USEFUL:          0  USELESS:          0
PSCL4 USEFUL LOAD PREFETCHES:          0 PREFETCH ISSUED TO LOWER LEVEL:          0  ACCURACY: -nan
PSCL4 TIMELY PREFETCHES:          0 LATE PREFETCHES: 0 DROPPED PREFETCHES: 0
PSCL4 COMMIT LATE PREFETCHES: 0 MISSED OPPORTUNITY: 0 LATE IN PQ: 0 UNCOVERED: 0
PSCL4 COMMIT LATE MSHR PREFETCHES: 0
PSCL4 MPKI TOTAL: 0 MSHR LATE: 0 PQ LATE: 0 COMMIT LATE: 0 MISSED OPPORTUNITY: 0 UNCOVERED: 0
PSCL4 PREFETCHES SAME FILL-ORIGIN LEVEL: 0 DIFFERENT FILL-ORIGIN LEVEL: 0

PSCL3 TOTAL     ACCESS:      34329  HIT:      34307  MISS:         22  HIT %:    99.9359  MISS %:  0.0640858   MPKI: 0.00011
PSCL3 Test counter:          0
PSCL3 LOAD TRANSLATION ACCESS:      34329  HIT:      34307  MISS:         22  HIT %:    99.9359  MISS %:  0.0640858   MPKI: 0.00011
PSCL3 PREFETCH  REQUESTED:          0  ISSUED:          0  USEFUL:          0  USELESS:          0
PSCL3 USEFUL LOAD PREFETCHES:          0 PREFETCH ISSUED TO LOWER LEVEL:          0  ACCURACY: -nan
PSCL3 TIMELY PREFETCHES:          0 LATE PREFETCHES: 0 DROPPED PREFETCHES: 0
PSCL3 COMMIT LATE PREFETCHES: 0 MISSED OPPORTUNITY: 0 LATE IN PQ: 0 UNCOVERED: 0
PSCL3 COMMIT LATE MSHR PREFETCHES: 0
PSCL3 MPKI TOTAL: 0 MSHR LATE: 0 PQ LATE: 0 COMMIT LATE: 0 MISSED OPPORTUNITY: 0 UNCOVERED: 0
PSCL3 PREFETCHES SAME FILL-ORIGIN LEVEL: 0 DIFFERENT FILL-ORIGIN LEVEL: 0

PSCL2 TOTAL     ACCESS:      42604  HIT:      42522  MISS:         82  HIT %:    99.8075  MISS %:    0.19247   MPKI: 0.00041
PSCL2 Test counter:          0
PSCL2 LOAD TRANSLATION ACCESS:      42604  HIT:      42522  MISS:         82  HIT %:    99.8075  MISS %:    0.19247   MPKI: 0.00041
PSCL2 PREFETCH  REQUESTED:          0  ISSUED:          0  USEFUL:          0  USELESS:          0
PSCL2 USEFUL LOAD PREFETCHES:          0 PREFETCH ISSUED TO LOWER LEVEL:          0  ACCURACY: -nan
PSCL2 TIMELY PREFETCHES:          0 LATE PREFETCHES: 0 DROPPED PREFETCHES: 0
PSCL2 COMMIT LATE PREFETCHES: 0 MISSED OPPORTUNITY: 0 LATE IN PQ: 0 UNCOVERED: 0
PSCL2 COMMIT LATE MSHR PREFETCHES: 0
PSCL2 MPKI TOTAL: 0 MSHR LATE: 0 PQ LATE: 0 COMMIT LATE: 0 MISSED OPPORTUNITY: 0 UNCOVERED: 0
PSCL2 PREFETCHES SAME FILL-ORIGIN LEVEL: 0 DIFFERENT FILL-ORIGIN LEVEL: 0

LLC TOTAL     ACCESS:    4107780  HIT:    1376141  MISS:    2731639  HIT %:    33.5008  MISS %:    66.4992   MPKI: 13.6582
LLC Test counter:          0
LLC LOAD      ACCESS:    1720049  HIT:     184824  MISS:    1535225  HIT %:    10.7453  MISS %:    89.2547   MPKI: 7.67612
LLC RFO       ACCESS:    1190770  HIT:          0  MISS:    1190770  HIT %:          0  MISS %:        100   MPKI: 5.95385
LLC WRITEBACK ACCESS:    1191502  HIT:    1191287  MISS:        215  HIT %:     99.982  MISS %:  0.0180445   MPKI: 0.001075
LLC LOAD TRANSLATION ACCESS:       5459  HIT:         30  MISS:       5429  HIT %:   0.549551  MISS %:    99.4504   MPKI: 0.027145
LLC PREFETCH  REQUESTED:          0  ISSUED:          0  USEFUL:          0  USELESS:          0
LLC USEFUL LOAD PREFETCHES:          0 PREFETCH ISSUED TO LOWER LEVEL:          0  ACCURACY: -nan
LLC TIMELY PREFETCHES:          0 LATE PREFETCHES: 0 DROPPED PREFETCHES: 0
LLC COMMIT LATE PREFETCHES: 0 MISSED OPPORTUNITY: 0 LATE IN PQ: 0 UNCOVERED: 0
LLC COMMIT LATE MSHR PREFETCHES: 0
LLC MPKI TOTAL: 7.67612 MSHR LATE: 0 PQ LATE: 0 COMMIT LATE: 0 MISSED OPPORTUNITY: 0 UNCOVERED: 0
LLC PREFETCHES SAME FILL-ORIGIN LEVEL: 0 DIFFERENT FILL-ORIGIN LEVEL: 0
LLC AVERAGE MISS LATENCY: 271.432 cycles
LLC AVERAGE MISS LATENCY LOAD: 225.993 cycles
LLC AVERAGE MISS LATENCY PREFETCH: -nan cycles
LLC AVERAGE MSHR OCCUPANCY: 2.96623
LLC MSHR FULL: 0
LLC RQ	ACCESS:    2916278	FORWARD:          0	MERGED:          0	TO_CACHE:    2916278
LLC WQ	ACCESS:    1191502	FORWARD:          0	MERGED:          0	TO_CACHE:    1191502

LLC Dense regions hint to LLC: 0
409a4b: 4
409a10: 4
409a1b: 4
40912a: 12
409074: 13
409947: 24
4099fd: 24
409555: 30
409068: 30
40906c: 33
4094a2: 1354
409486: 2016
4095a9: 2700
409543: 3024
40950f: 167085
409479: 168093
409475: 170109
4094c5: 170109
40949c: 170109
4095da: 170110
40960f: 170110
4094bd: 170110
40957b: 170118

RAW hits: 13207575
Loads Generated: 58645965
Loads sent to L1D: 45438388
Stores Generated: 36649052
Stores sent to L1D: 36649060
Major fault: 0 Minor fault: 48769
Allocated PAGES: 48769
Total Load insts: 56478185
Total Non-spec loads: 3926139
Percentage of speculative loads: 93.0484
L1D response latency: 203.045 cycles
Load retirement latency: 279.49 cycles


DRAM Statistics
 CHANNEL 0
 RQ ROW_BUFFER_HIT:    1437310  ROW_BUFFER_MISS:    1294114
 DBUS_CONGESTED:        380
 WQ ROW_BUFFER_HIT:     538794  ROW_BUFFER_MISS:     651984  FULL:          0

 AVG_CONGESTED_CYCLE: 4
 All warmup complete: 2
Channel 0 Bank busy for read cycles: 0
Channel 0 Bank busy for write cycles: 0
Channel 0
Rank 0
0banks busy for read cycles: 2454295
0banks busy for write cycles: 55556
1banks busy for read cycles: 142153259
1banks busy for write cycles: 8647188
2banks busy for read cycles: 44124375
2banks busy for write cycles: 16623141
3banks busy for read cycles: 11672825
3banks busy for write cycles: 14655819
4banks busy for read cycles: 142181
4banks busy for write cycles: 11646797
5banks busy for read cycles: 294
5banks busy for write cycles: 6909475
6banks busy for read cycles: 0
6banks busy for write cycles: 3134802
7banks busy for read cycles: 0
7banks busy for write cycles: 1057105
8banks busy for read cycles: 0
8banks busy for write cycles: 409479

CPU 0 Branch Prediction Accuracy: 99.9697% MPKI: 0.00256 Average ROB Occupancy at Mispredict: 289.422
Branch types
NOT_BRANCH: 198311835 99.1559%
BRANCH_DIRECT_JUMP: 0 0%
BRANCH_INDIRECT: 0 0%
BRANCH_CONDITIONAL: 1688004 0.844002%
BRANCH_DIRECT_CALL: 0 0%
BRANCH_INDIRECT_CALL: 0 0%
BRANCH_RETURN: 0 0%
BRANCH_OTHER: 0 0%

DRAM PAGES: 1048576
Allocated PAGES: 48769
