
*** ChampSim Multicore Out-of-Order Simulator ***

Warmup Instructions: 50000000
Simulation Instructions: 200000000
Number of CPUs: 1
LLC sets: 2048
LLC ways: 16
Off-chip DRAM Size: 4096 MB Channels: 1 Width: 64-bit Data Rate: 6400 MT/s
CPU 0 runs /home/sumon/secure_berti/Berti_Baseline/../../traces/spec/605.mcf_s-1554B.champsimtrace.xz
.xz
BTB has LRU replacement policy
ITLB has LRU replacement policy
DTLB has LRU replacement policy
STLB has LRU replacement policy
L1I has LRU replacement policy
L1D has LRU replacement policy
L2C has LRU replacement policy
LLC has LRU replacement policy
Heartbeat CPU 0 instructions: 10000001 cycles: 3598432 heartbeat IPC: 2.77899 cumulative IPC: 2.77899 (Simulation time: 0 hr 0 min 44 sec) 
Heartbeat CPU 0 instructions: 20000000 cycles: 7219343 heartbeat IPC: 2.76174 cumulative IPC: 2.77034 (Simulation time: 0 hr 1 min 27 sec) 
Heartbeat CPU 0 instructions: 30000002 cycles: 10850414 heartbeat IPC: 2.75401 cumulative IPC: 2.76487 (Simulation time: 0 hr 2 min 9 sec) 
Heartbeat CPU 0 instructions: 40000001 cycles: 14470925 heartbeat IPC: 2.76204 cumulative IPC: 2.76416 (Simulation time: 0 hr 2 min 52 sec) 
Heartbeat CPU 0 instructions: 50000000 cycles: 18093674 heartbeat IPC: 2.76033 cumulative IPC: 2.7634 (Simulation time: 0 hr 3 min 35 sec) 

Warmup complete CPU 0 instructions: 50000004 cycles: 18093675 (Simulation time: 0 hr 3 min 35 sec) 

Heartbeat CPU 0 instructions: 60000000 cycles: 86768007 heartbeat IPC: 0.145615 cumulative IPC: 0.145615 (Simulation time: 0 hr 5 min 27 sec) 
Heartbeat CPU 0 instructions: 70000000 cycles: 156355999 heartbeat IPC: 0.143703 cumulative IPC: 0.144653 (Simulation time: 0 hr 7 min 51 sec) 
Heartbeat CPU 0 instructions: 80000000 cycles: 227557189 heartbeat IPC: 0.140447 cumulative IPC: 0.143223 (Simulation time: 0 hr 10 min 24 sec) 
Heartbeat CPU 0 instructions: 90000003 cycles: 297136749 heartbeat IPC: 0.14372 cumulative IPC: 0.143347 (Simulation time: 0 hr 12 min 56 sec) 
Heartbeat CPU 0 instructions: 100000002 cycles: 365372515 heartbeat IPC: 0.146551 cumulative IPC: 0.143977 (Simulation time: 0 hr 15 min 32 sec) 
Heartbeat CPU 0 instructions: 110000000 cycles: 434040513 heartbeat IPC: 0.145628 cumulative IPC: 0.144249 (Simulation time: 0 hr 18 min 30 sec) 
Heartbeat CPU 0 instructions: 120000000 cycles: 499070241 heartbeat IPC: 0.153776 cumulative IPC: 0.145537 (Simulation time: 0 hr 26 min 14 sec) 
Heartbeat CPU 0 instructions: 130000000 cycles: 566740989 heartbeat IPC: 0.147774 cumulative IPC: 0.145813 (Simulation time: 0 hr 33 min 34 sec) 
Heartbeat CPU 0 instructions: 140000000 cycles: 635257739 heartbeat IPC: 0.14595 cumulative IPC: 0.145828 (Simulation time: 0 hr 38 min 0 sec) 
Heartbeat CPU 0 instructions: 150000001 cycles: 702689523 heartbeat IPC: 0.148298 cumulative IPC: 0.146072 (Simulation time: 0 hr 39 min 19 sec) 
Heartbeat CPU 0 instructions: 160000000 cycles: 766242707 heartbeat IPC: 0.157349 cumulative IPC: 0.14703 (Simulation time: 0 hr 40 min 48 sec) 
Heartbeat CPU 0 instructions: 170000003 cycles: 830807383 heartbeat IPC: 0.154884 cumulative IPC: 0.147653 (Simulation time: 0 hr 42 min 0 sec) 
Heartbeat CPU 0 instructions: 180000001 cycles: 896046449 heartbeat IPC: 0.153282 cumulative IPC: 0.148072 (Simulation time: 0 hr 43 min 7 sec) 
Heartbeat CPU 0 instructions: 190000002 cycles: 959408157 heartbeat IPC: 0.157824 cumulative IPC: 0.148728 (Simulation time: 0 hr 44 min 8 sec) 
Heartbeat CPU 0 instructions: 200000002 cycles: 1023764236 heartbeat IPC: 0.155385 cumulative IPC: 0.149154 (Simulation time: 0 hr 45 min 8 sec) 
Heartbeat CPU 0 instructions: 210000001 cycles: 1089158519 heartbeat IPC: 0.152919 cumulative IPC: 0.149384 (Simulation time: 0 hr 46 min 7 sec) 
Heartbeat CPU 0 instructions: 220000000 cycles: 1154875647 heartbeat IPC: 0.152167 cumulative IPC: 0.149545 (Simulation time: 0 hr 47 min 5 sec) 
Heartbeat CPU 0 instructions: 230000002 cycles: 1219205325 heartbeat IPC: 0.155449 cumulative IPC: 0.149861 (Simulation time: 0 hr 48 min 5 sec) 
Heartbeat CPU 0 instructions: 240000001 cycles: 1285792752 heartbeat IPC: 0.150178 cumulative IPC: 0.149878 (Simulation time: 0 hr 49 min 3 sec) 
Heartbeat CPU 0 instructions: 250000001 cycles: 1352472218 heartbeat IPC: 0.149971 cumulative IPC: 0.149883 (Simulation time: 0 hr 50 min 2 sec) 
Finished CPU 0 instructions: 200000000 cycles: 1334378846 cumulative IPC: 0.149882 (Simulation time: 0 hr 50 min 2 sec) 

ChampSim completed all CPUs

Region of Interest Statistics

CPU 0 cumulative IPC: 0.149882 instructions: 200000000 cycles: 1334378846
ITLB TOTAL     ACCESS:   45250310  HIT:   45250310  MISS:          0  HIT %:        100  MISS %:          0   MPKI: 0
ITLB Test counter:          0
ITLB LOAD TRANSLATION ACCESS:   45250310  HIT:   45250310  MISS:          0  HIT %:        100  MISS %:          0   MPKI: 0
ITLB PREFETCH  REQUESTED:          0  ISSUED:          0  USEFUL:          0  USELESS:          0
ITLB USEFUL LOAD PREFETCHES:          0 PREFETCH ISSUED TO LOWER LEVEL:          0  ACCURACY: -nan
ITLB TIMELY PREFETCHES:          0 LATE PREFETCHES: 0 DROPPED PREFETCHES: 0
ITLB COMMIT LATE PREFETCHES: 0 MISSED OPPORTUNITY: 0 LATE IN PQ: 0 UNCOVERED: 0
ITLB COMMIT LATE MSHR PREFETCHES: 0
ITLB MPKI TOTAL: 0 MSHR LATE: 0 PQ LATE: 0 COMMIT LATE: 0 MISSED OPPORTUNITY: 0 UNCOVERED: 0
ITLB PREFETCHES SAME FILL-ORIGIN LEVEL: 0 DIFFERENT FILL-ORIGIN LEVEL: 0
ITLB AVERAGE MISS LATENCY: -nan cycles
ITLB AVERAGE MISS LATENCY LOAD: -nan cycles
ITLB AVERAGE MISS LATENCY PREFETCH: -nan cycles
ITLB AVERAGE MSHR OCCUPANCY: 0
ITLB MSHR FULL: 0
ITLB RQ	ACCESS:   54242268	FORWARD:          0	MERGED:    8991958	TO_CACHE:   45250310

DTLB TOTAL     ACCESS:   63107364  HIT:   62306857  MISS:     800507  HIT %:    98.7315  MISS %:    1.26848   MPKI: 4.00253
DTLB Test counter:          0
DTLB LOAD TRANSLATION ACCESS:   63107364  HIT:   62306857  MISS:     800507  HIT %:    98.7315  MISS %:    1.26848   MPKI: 4.00253
DTLB PREFETCH  REQUESTED:          0  ISSUED:          0  USEFUL:          0  USELESS:          0
DTLB USEFUL LOAD PREFETCHES:          0 PREFETCH ISSUED TO LOWER LEVEL:          0  ACCURACY: -nan
DTLB TIMELY PREFETCHES:          0 LATE PREFETCHES: 0 DROPPED PREFETCHES: 0
DTLB COMMIT LATE PREFETCHES: 0 MISSED OPPORTUNITY: 0 LATE IN PQ: 0 UNCOVERED: 0
DTLB COMMIT LATE MSHR PREFETCHES: 0
DTLB MPKI TOTAL: 0 MSHR LATE: 0 PQ LATE: 0 COMMIT LATE: 0 MISSED OPPORTUNITY: 0 UNCOVERED: 0
DTLB PREFETCHES SAME FILL-ORIGIN LEVEL: 0 DIFFERENT FILL-ORIGIN LEVEL: 0
DTLB AVERAGE MISS LATENCY: 11.5887 cycles
DTLB AVERAGE MISS LATENCY LOAD: -nan cycles
DTLB AVERAGE MISS LATENCY PREFETCH: -nan cycles
DTLB AVERAGE MSHR OCCUPANCY: 0.0115127
DTLB MSHR FULL: 0
DTLB RQ	ACCESS:   77045737	FORWARD:          0	MERGED:   13925895	TO_CACHE:   63119842

STLB TOTAL     ACCESS:     800507  HIT:     788239  MISS:      12268  HIT %:    98.4675  MISS %:    1.53253   MPKI: 0.06134
STLB Test counter:          0
STLB LOAD TRANSLATION ACCESS:     800507  HIT:     788239  MISS:      12268  HIT %:    98.4675  MISS %:    1.53253   MPKI: 0.06134
STLB PREFETCH  REQUESTED:          0  ISSUED:          0  USEFUL:          0  USELESS:          0
STLB USEFUL LOAD PREFETCHES:          0 PREFETCH ISSUED TO LOWER LEVEL:          0  ACCURACY: -nan
STLB TIMELY PREFETCHES:          0 LATE PREFETCHES: 0 DROPPED PREFETCHES: 0
STLB COMMIT LATE PREFETCHES: 0 MISSED OPPORTUNITY: 0 LATE IN PQ: 0 UNCOVERED: 0
STLB COMMIT LATE MSHR PREFETCHES: 0
STLB MPKI TOTAL: 0 MSHR LATE: 0 PQ LATE: 0 COMMIT LATE: 0 MISSED OPPORTUNITY: 0 UNCOVERED: 0
STLB PREFETCHES SAME FILL-ORIGIN LEVEL: 0 DIFFERENT FILL-ORIGIN LEVEL: 0
STLB AVERAGE MISS LATENCY: 168.621 cycles
STLB AVERAGE MISS LATENCY LOAD: -nan cycles
STLB AVERAGE MISS LATENCY PREFETCH: -nan cycles
STLB AVERAGE MSHR OCCUPANCY: 0.00183259
STLB MSHR FULL: 0
STLB RQ	ACCESS:     800507	FORWARD:          0	MERGED:          0	TO_CACHE:     800507

STLB Hit, L1D data hit: 0
STLB Hit, L2C data hit: 0
STLB Hit, LLC data hit: 0
STLB Hit, LLC data miss: 0
STLB STLB hints to L2: 0
L1D TOTAL     ACCESS:   71378061  HIT:   40208942  MISS:   31169119  HIT %:    56.3324  MISS %:    43.6676   MPKI: 155.846
L1D Test counter:          0
L1D LOAD      ACCESS:   61464704  HIT:   30710484  MISS:   35446570  HIT %:    49.9644  MISS %:    50.0356   MPKI: 153.771
L1D RFO       ACCESS:    9913357  HIT:    9498458  MISS:     414899  HIT %:    95.8147  MISS %:    4.18525   MPKI: 2.0745
L1D PREFETCH  REQUESTED:          0  ISSUED:          0  USEFUL:          0  USELESS:          0
L1D USEFUL LOAD PREFETCHES:          0 PREFETCH ISSUED TO LOWER LEVEL:          0  ACCURACY: -nan
L1D TIMELY PREFETCHES:          0 LATE PREFETCHES: 0 DROPPED PREFETCHES: 0
L1D COMMIT LATE PREFETCHES: 0 MISSED OPPORTUNITY: 0 LATE IN PQ: 0 UNCOVERED: 0
L1D COMMIT LATE MSHR PREFETCHES: 0
L1D MPKI TOTAL: 177.233 MSHR LATE: 0 PQ LATE: 0 COMMIT LATE: 0 MISSED OPPORTUNITY: 0 UNCOVERED: 0
L1D PREFETCHES SAME FILL-ORIGIN LEVEL: 0 DIFFERENT FILL-ORIGIN LEVEL: 0
L1D AVERAGE MISS LATENCY: 144.027 cycles
L1D AVERAGE MISS LATENCY LOAD: 143.086 cycles
L1D AVERAGE MISS LATENCY PREFETCH: -nan cycles
L1D AVERAGE MSHR OCCUPANCY: 3.21824
L1D MSHR FULL: 0
L1D RQ	ACCESS:   83176661	FORWARD:          0	MERGED:   16904096	TO_CACHE:   66157050
L1D WQ	ACCESS:   13518702	FORWARD:     115515	MERGED:    2630015	TO_CACHE:   10888687

L1D UNIQUE REGIONS ACCESSED: 0
L1D REGIONS CONFLICTS: 0
L1D Cross Page Prefetch Requests: 0
L1D Same Page Prefetch Requests: 0
L1D ROI Sum of L1D PQ occupancy: 0
L1D PREFETCHES PUSHED FROM L2C: 0
41a843: 83
402d96: 98
402dab: 99
402e18: 108
402dff: 310
402ecf: 570
41a9be: 706
41d3b5: 789
41d3a0: 789
41d3c2: 789
402e04: 789
41d3be: 789
41d38c: 789
402cad: 789
41d375: 789
402d79: 789
402d40: 789
41a7ae: 789
41ac71: 789
41acb6: 789
402d6e: 789
402d9f: 789
402eb2: 1168
402ea4: 3229
402e95: 244521
402dc7: 2880050
402dc0: 4529129
402dcb: 6793790
402dfb: 7229872
402dc3: 9058652
L1I TOTAL     ACCESS:   54242268  HIT:   54242268  MISS:          0  HIT %:        100  MISS %:          0   MPKI: 0
L1I Test counter:          0
L1I LOAD      ACCESS:   54242268  HIT:   54242268  MISS:          0  HIT %:        100  MISS %:          0   MPKI: 0
L1I PREFETCH  REQUESTED:          0  ISSUED:          0  USEFUL:          0  USELESS:          0
L1I USEFUL LOAD PREFETCHES:          0 PREFETCH ISSUED TO LOWER LEVEL:          0  ACCURACY: -nan
L1I TIMELY PREFETCHES:          0 LATE PREFETCHES: 0 DROPPED PREFETCHES: 0
L1I COMMIT LATE PREFETCHES: 0 MISSED OPPORTUNITY: 0 LATE IN PQ: 0 UNCOVERED: 0
L1I COMMIT LATE MSHR PREFETCHES: 0
L1I MPKI TOTAL: 0 MSHR LATE: 0 PQ LATE: 0 COMMIT LATE: 0 MISSED OPPORTUNITY: 0 UNCOVERED: 0
L1I PREFETCHES SAME FILL-ORIGIN LEVEL: 0 DIFFERENT FILL-ORIGIN LEVEL: 0
L1I AVERAGE MISS LATENCY: -nan cycles
L1I AVERAGE MISS LATENCY LOAD: -nan cycles
L1I AVERAGE MISS LATENCY PREFETCH: -nan cycles
L1I AVERAGE MSHR OCCUPANCY: 0
L1I MSHR FULL: 0
L1I RQ	ACCESS:   78043239	FORWARD:          0	MERGED:   23800971	TO_CACHE:   54242268

BTB TOTAL     ACCESS:   35943478  HIT:   35943446  MISS:         32  HIT %:    99.9999  MISS %: 8.90287e-05   MPKI: 0.00016
BTB Test counter:          0
BTB BRANCH_DIRECT_JUMP	ACCESS:    8413979  HIT:    8413973  MISS:          6
BTB BRANCH_INDIRECT	ACCESS:          0  HIT:          0  MISS:          0
BTB BRANCH_CONDITIONAL	ACCESS:   27526343  HIT:   27526321  MISS:         22
BTB BRANCH_DIRECT_CALL	ACCESS:       1578  HIT:       1576  MISS:          2
BTB BRANCH_INDIRECT_CALL	ACCESS:          0  HIT:          0  MISS:          0
BTB BRANCH_RETURN	ACCESS:       1578  HIT:       1576  MISS:          2
BTB BRANCH_OTHER ACCESS:          0  HIT:          0  MISS:          0

L2C TOTAL     ACCESS:   31728609  HIT:     558714  MISS:   31169895  HIT %:    1.76092  MISS %:    98.2391   MPKI: 155.849
L2C Test counter:          0
L2C LOAD      ACCESS:   30754219  HIT:       2596  MISS:   30751627  HIT %: 0.00844112  MISS %:    99.9916   MPKI: 153.758
L2C DATA LOAD MPKI: 153.758
L2C INSTRUCTION LOAD MPKI: 0
L2C RFO       ACCESS:     414898  HIT:        540  MISS:     414358  HIT %:   0.130152  MISS %:    99.8698   MPKI: 2.07179
L2C WRITEBACK ACCESS:     547209  HIT:     546234  MISS:        975  HIT %:    99.8218  MISS %:   0.178177   MPKI: 0.004875
L2C LOAD TRANSLATION ACCESS:      12283  HIT:       9344  MISS:       2939  HIT %:    76.0726  MISS %:    23.9274   MPKI: 0.014695
L2C PREFETCH  REQUESTED:          0  ISSUED:          0  USEFUL:          0  USELESS:          0
L2C USEFUL LOAD PREFETCHES:          0 PREFETCH ISSUED TO LOWER LEVEL:          0  ACCURACY: -nan
L2C TIMELY PREFETCHES:          0 LATE PREFETCHES: 0 DROPPED PREFETCHES: 0
L2C COMMIT LATE PREFETCHES: 0 MISSED OPPORTUNITY: 0 LATE IN PQ: 0 UNCOVERED: 0
L2C COMMIT LATE MSHR PREFETCHES: 0
L2C MPKI TOTAL: 153.758 MSHR LATE: 0 PQ LATE: 0 COMMIT LATE: 0 MISSED OPPORTUNITY: 0 UNCOVERED: 0
L2C PREFETCHES SAME FILL-ORIGIN LEVEL: 0 DIFFERENT FILL-ORIGIN LEVEL: 0
L2C AVERAGE MISS LATENCY: 128.913 cycles
L2C AVERAGE MISS LATENCY LOAD: 127.97 cycles
L2C AVERAGE MISS LATENCY PREFETCH: -nan cycles
L2C AVERAGE MSHR OCCUPANCY: 2.79723
L2C MSHR FULL: 0
L2C RQ	ACCESS:   31181405	FORWARD:          0	MERGED:          0	TO_CACHE:   31181404
L2C WQ	ACCESS:     547209	FORWARD:          1	MERGED:          0	TO_CACHE:     547209

L2C Instructions Evicting Data 0
L2C Translations Evicting Data 2939
L2C Data Evicting Data 31163039
L2C Instructions Evicting Instructions 0
L2C Translations Evicting Instructions 0
L2C Data Evicting Instructions 0
L2C Instructions Evicting Translations 0
L2C Translations Evicting Translations 0
L2C Data Evicting Translations 2942
L2C Dense regions hint from L2: 0
41a843: 83
402d96: 98
402dab: 99
402ecf: 415
41a9be: 706
402cad: 789
402d40: 789
41d38c: 789
41a7ae: 789
41d3b5: 789
41d3be: 789
402d79: 789
402e04: 789
41d375: 789
41d3c2: 789
41d3a0: 789
41ac71: 789
41acb6: 789
402d6e: 789
402d9f: 789
402eb2: 874
402ea4: 2538
402e95: 243483
402dc7: 2880050
402dc0: 4529129
402dcb: 6793790
402dfb: 7229872
402dc3: 9058651
PSCL5 TOTAL     ACCESS:      12268  HIT:      12268  MISS:          0  HIT %:        100  MISS %:          0   MPKI: 0
PSCL5 Test counter:          0
PSCL5 LOAD TRANSLATION ACCESS:      12268  HIT:      12268  MISS:          0  HIT %:        100  MISS %:          0   MPKI: 0
PSCL5 PREFETCH  REQUESTED:          0  ISSUED:          0  USEFUL:          0  USELESS:          0
PSCL5 USEFUL LOAD PREFETCHES:          0 PREFETCH ISSUED TO LOWER LEVEL:          0  ACCURACY: -nan
PSCL5 TIMELY PREFETCHES:          0 LATE PREFETCHES: 0 DROPPED PREFETCHES: 0
PSCL5 COMMIT LATE PREFETCHES: 0 MISSED OPPORTUNITY: 0 LATE IN PQ: 0 UNCOVERED: 0
PSCL5 COMMIT LATE MSHR PREFETCHES: 0
PSCL5 MPKI TOTAL: 0 MSHR LATE: 0 PQ LATE: 0 COMMIT LATE: 0 MISSED OPPORTUNITY: 0 UNCOVERED: 0
PSCL5 PREFETCHES SAME FILL-ORIGIN LEVEL: 0 DIFFERENT FILL-ORIGIN LEVEL: 0

PSCL4 TOTAL     ACCESS:      12268  HIT:      12268  MISS:          0  HIT %:        100  MISS %:          0   MPKI: 0
PSCL4 Test counter:          0
PSCL4 LOAD TRANSLATION ACCESS:      12268  HIT:      12268  MISS:          0  HIT %:        100  MISS %:          0   MPKI: 0
PSCL4 PREFETCH  REQUESTED:          0  ISSUED:          0  USEFUL:          0  USELESS:          0
PSCL4 USEFUL LOAD PREFETCHES:          0 PREFETCH ISSUED TO LOWER LEVEL:          0  ACCURACY: -nan
PSCL4 TIMELY PREFETCHES:          0 LATE PREFETCHES: 0 DROPPED PREFETCHES: 0
PSCL4 COMMIT LATE PREFETCHES: 0 MISSED OPPORTUNITY: 0 LATE IN PQ: 0 UNCOVERED: 0
PSCL4 COMMIT LATE MSHR PREFETCHES: 0
PSCL4 MPKI TOTAL: 0 MSHR LATE: 0 PQ LATE: 0 COMMIT LATE: 0 MISSED OPPORTUNITY: 0 UNCOVERED: 0
PSCL4 PREFETCHES SAME FILL-ORIGIN LEVEL: 0 DIFFERENT FILL-ORIGIN LEVEL: 0

PSCL3 TOTAL     ACCESS:      12268  HIT:      12267  MISS:          1  HIT %:    99.9918  MISS %: 0.00815129   MPKI: 5e-06
PSCL3 Test counter:          0
PSCL3 LOAD TRANSLATION ACCESS:      12268  HIT:      12267  MISS:          1  HIT %:    99.9918  MISS %: 0.00815129   MPKI: 5e-06
PSCL3 PREFETCH  REQUESTED:          0  ISSUED:          0  USEFUL:          0  USELESS:          0
PSCL3 USEFUL LOAD PREFETCHES:          0 PREFETCH ISSUED TO LOWER LEVEL:          0  ACCURACY: -nan
PSCL3 TIMELY PREFETCHES:          0 LATE PREFETCHES: 0 DROPPED PREFETCHES: 0
PSCL3 COMMIT LATE PREFETCHES: 0 MISSED OPPORTUNITY: 0 LATE IN PQ: 0 UNCOVERED: 0
PSCL3 COMMIT LATE MSHR PREFETCHES: 0
PSCL3 MPKI TOTAL: 0 MSHR LATE: 0 PQ LATE: 0 COMMIT LATE: 0 MISSED OPPORTUNITY: 0 UNCOVERED: 0
PSCL3 PREFETCHES SAME FILL-ORIGIN LEVEL: 0 DIFFERENT FILL-ORIGIN LEVEL: 0

PSCL2 TOTAL     ACCESS:      12268  HIT:      12229  MISS:         39  HIT %:    99.6821  MISS %:     0.3179   MPKI: 0.000195
PSCL2 Test counter:          0
PSCL2 LOAD TRANSLATION ACCESS:      12268  HIT:      12229  MISS:         39  HIT %:    99.6821  MISS %:     0.3179   MPKI: 0.000195
PSCL2 PREFETCH  REQUESTED:          0  ISSUED:          0  USEFUL:          0  USELESS:          0
PSCL2 USEFUL LOAD PREFETCHES:          0 PREFETCH ISSUED TO LOWER LEVEL:          0  ACCURACY: -nan
PSCL2 TIMELY PREFETCHES:          0 LATE PREFETCHES: 0 DROPPED PREFETCHES: 0
PSCL2 COMMIT LATE PREFETCHES: 0 MISSED OPPORTUNITY: 0 LATE IN PQ: 0 UNCOVERED: 0
PSCL2 COMMIT LATE MSHR PREFETCHES: 0
PSCL2 MPKI TOTAL: 0 MSHR LATE: 0 PQ LATE: 0 COMMIT LATE: 0 MISSED OPPORTUNITY: 0 UNCOVERED: 0
PSCL2 PREFETCHES SAME FILL-ORIGIN LEVEL: 0 DIFFERENT FILL-ORIGIN LEVEL: 0

LLC TOTAL     ACCESS:   31715024  HIT:    3229918  MISS:   28485106  HIT %:    10.1842  MISS %:    89.8158   MPKI: 142.426
LLC Test counter:          0
LLC LOAD      ACCESS:   30751623  HIT:    2684457  MISS:   28067170  HIT %:    8.72948  MISS %:    91.2705   MPKI: 140.336
LLC RFO       ACCESS:     414358  HIT:        100  MISS:     414258  HIT %:  0.0241337  MISS %:    99.9759   MPKI: 2.07129
LLC WRITEBACK ACCESS:     546104  HIT:     545160  MISS:        944  HIT %:    99.8271  MISS %:   0.172861   MPKI: 0.00472
LLC LOAD TRANSLATION ACCESS:       2939  HIT:        201  MISS:       2738  HIT %:    6.83906  MISS %:    93.1609   MPKI: 0.01369
LLC PREFETCH  REQUESTED:          0  ISSUED:          0  USEFUL:          0  USELESS:          0
LLC USEFUL LOAD PREFETCHES:          0 PREFETCH ISSUED TO LOWER LEVEL:          0  ACCURACY: -nan
LLC TIMELY PREFETCHES:          0 LATE PREFETCHES: 0 DROPPED PREFETCHES: 0
LLC COMMIT LATE PREFETCHES: 0 MISSED OPPORTUNITY: 0 LATE IN PQ: 0 UNCOVERED: 0
LLC COMMIT LATE MSHR PREFETCHES: 0
LLC MPKI TOTAL: 140.336 MSHR LATE: 0 PQ LATE: 0 COMMIT LATE: 0 MISSED OPPORTUNITY: 0 UNCOVERED: 0
LLC PREFETCHES SAME FILL-ORIGIN LEVEL: 0 DIFFERENT FILL-ORIGIN LEVEL: 0
LLC AVERAGE MISS LATENCY: 108.222 cycles
LLC AVERAGE MISS LATENCY LOAD: 107.328 cycles
LLC AVERAGE MISS LATENCY PREFETCH: -nan cycles
LLC AVERAGE MSHR OCCUPANCY: 2.14871
LLC MSHR FULL: 0
LLC RQ	ACCESS:   31168924	FORWARD:          0	MERGED:          0	TO_CACHE:   31168924
LLC WQ	ACCESS:     546104	FORWARD:          0	MERGED:          0	TO_CACHE:     546104

LLC Dense regions hint to LLC: 0
41a843: 83
402d96: 98
402dab: 99
402ecf: 401
402d6e: 603
41a9be: 706
402e04: 759
41d3c2: 782
402cad: 789
402d40: 789
41d38c: 789
41a7ae: 789
41d3b5: 789
41d3be: 789
402d79: 789
41d375: 789
41d3a0: 789
41ac71: 789
41acb6: 789
402d9f: 789
402eb2: 848
402ea4: 2498
402e95: 243401
402dc7: 2633354
402dc0: 4115910
402dcb: 6180295
402dfb: 6622800
402dc3: 8255061

RAW hits: 8356329
Loads Generated: 91532989
Loads sent to L1D: 83176661
Stores Generated: 13518703
Stores sent to L1D: 13518702
Major fault: 0 Minor fault: 17320
Allocated PAGES: 17320
Total Load insts: 103472847
Total Non-spec loads: 8459587
Percentage of speculative loads: 91.8243
L1D response latency: 143.086 cycles
Load retirement latency: 264.034 cycles


DRAM Statistics
 CHANNEL 0
 RQ ROW_BUFFER_HIT:   20661258  ROW_BUFFER_MISS:    7822900
 DBUS_CONGESTED:      30821
 WQ ROW_BUFFER_HIT:     453826  ROW_BUFFER_MISS:      93380  FULL:          0

 AVG_CONGESTED_CYCLE: 4
 All warmup complete: 2
Channel 0 Bank busy for read cycles: 0
Channel 0 Bank busy for write cycles: 0
Channel 0
Rank 0
0banks busy for read cycles: 226844703
0banks busy for write cycles: 39584
1banks busy for read cycles: 378094410
1banks busy for write cycles: 16531596
2banks busy for read cycles: 335679443
2banks busy for write cycles: 6648031
3banks busy for read cycles: 216512225
3banks busy for write cycles: 3776853
4banks busy for read cycles: 90657671
4banks busy for write cycles: 2967690
5banks busy for read cycles: 23387899
5banks busy for write cycles: 2623942
6banks busy for read cycles: 4159589
6banks busy for write cycles: 2855035
7banks busy for read cycles: 460307
7banks busy for write cycles: 5205892
8banks busy for read cycles: 545
8banks busy for write cycles: 17933432

CPU 0 Branch Prediction Accuracy: 98.8241% MPKI: 2.1554 Average ROB Occupancy at Mispredict: 78.8489
Branch types
NOT_BRANCH: 163339845 81.6699%
BRANCH_DIRECT_JUMP: 8413979 4.20699%
BRANCH_INDIRECT: 0 0%
BRANCH_CONDITIONAL: 28243020 14.1215%
BRANCH_DIRECT_CALL: 1578 0.000789%
BRANCH_INDIRECT_CALL: 0 0%
BRANCH_RETURN: 1578 0.000789%
BRANCH_OTHER: 0 0%

DRAM PAGES: 1048576
Allocated PAGES: 17320
