
*** ChampSim Multicore Out-of-Order Simulator ***

Warmup Instructions: 50000000
Simulation Instructions: 200000000
Number of CPUs: 1
LLC sets: 2048
LLC ways: 16
Off-chip DRAM Size: 4096 MB Channels: 1 Width: 64-bit Data Rate: 6400 MT/s
CPU 0 runs /home/sumon/secure_berti/Berti_Baseline/../../traces/spec/605.mcf_s-1644B.champsimtrace.xz
.xz
BTB has LRU replacement policy
ITLB has LRU replacement policy
DTLB has LRU replacement policy
STLB has LRU replacement policy
L1I has LRU replacement policy
L1D has LRU replacement policy
L2C has LRU replacement policy
LLC has LRU replacement policy
Heartbeat CPU 0 instructions: 10000003 cycles: 5129977 heartbeat IPC: 1.94933 cumulative IPC: 1.94933 (Simulation time: 0 hr 0 min 53 sec) 
Heartbeat CPU 0 instructions: 20000001 cycles: 10258379 heartbeat IPC: 1.94992 cumulative IPC: 1.94963 (Simulation time: 0 hr 1 min 45 sec) 
Heartbeat CPU 0 instructions: 30000002 cycles: 15380701 heartbeat IPC: 1.95224 cumulative IPC: 1.9505 (Simulation time: 0 hr 2 min 38 sec) 
Heartbeat CPU 0 instructions: 40000002 cycles: 20493465 heartbeat IPC: 1.95589 cumulative IPC: 1.95184 (Simulation time: 0 hr 3 min 29 sec) 
Heartbeat CPU 0 instructions: 50000000 cycles: 25600779 heartbeat IPC: 1.95798 cumulative IPC: 1.95307 (Simulation time: 0 hr 4 min 23 sec) 

Warmup complete CPU 0 instructions: 50000004 cycles: 25600780 (Simulation time: 0 hr 4 min 23 sec) 

Heartbeat CPU 0 instructions: 60000001 cycles: 94629718 heartbeat IPC: 0.144867 cumulative IPC: 0.144867 (Simulation time: 0 hr 6 min 34 sec) 
Heartbeat CPU 0 instructions: 70000003 cycles: 163554305 heartbeat IPC: 0.145086 cumulative IPC: 0.144976 (Simulation time: 0 hr 8 min 56 sec) 
Heartbeat CPU 0 instructions: 80000000 cycles: 232934272 heartbeat IPC: 0.144134 cumulative IPC: 0.144694 (Simulation time: 0 hr 11 min 14 sec) 
Heartbeat CPU 0 instructions: 90000000 cycles: 302265887 heartbeat IPC: 0.144234 cumulative IPC: 0.144579 (Simulation time: 0 hr 13 min 32 sec) 
Heartbeat CPU 0 instructions: 100000003 cycles: 372617440 heartbeat IPC: 0.142143 cumulative IPC: 0.144085 (Simulation time: 0 hr 15 min 57 sec) 
Heartbeat CPU 0 instructions: 110000000 cycles: 443374450 heartbeat IPC: 0.141329 cumulative IPC: 0.143618 (Simulation time: 0 hr 18 min 44 sec) 
Heartbeat CPU 0 instructions: 120000000 cycles: 514352916 heartbeat IPC: 0.140888 cumulative IPC: 0.143222 (Simulation time: 0 hr 23 min 5 sec) 
Heartbeat CPU 0 instructions: 130000000 cycles: 584862051 heartbeat IPC: 0.141826 cumulative IPC: 0.143046 (Simulation time: 0 hr 27 min 15 sec) 
Heartbeat CPU 0 instructions: 140000003 cycles: 653850107 heartbeat IPC: 0.144953 cumulative IPC: 0.143255 (Simulation time: 0 hr 32 min 9 sec) 
Heartbeat CPU 0 instructions: 150000000 cycles: 719942935 heartbeat IPC: 0.151302 cumulative IPC: 0.144021 (Simulation time: 0 hr 37 min 1 sec) 
Heartbeat CPU 0 instructions: 160000002 cycles: 784526992 heartbeat IPC: 0.154837 cumulative IPC: 0.144942 (Simulation time: 0 hr 38 min 35 sec) 
Heartbeat CPU 0 instructions: 170000000 cycles: 850612737 heartbeat IPC: 0.151319 cumulative IPC: 0.145452 (Simulation time: 0 hr 39 min 46 sec) 
Heartbeat CPU 0 instructions: 180000002 cycles: 916831727 heartbeat IPC: 0.151014 cumulative IPC: 0.145866 (Simulation time: 0 hr 40 min 57 sec) 
Heartbeat CPU 0 instructions: 190000000 cycles: 982668889 heartbeat IPC: 0.15189 cumulative IPC: 0.14628 (Simulation time: 0 hr 42 min 8 sec) 
Heartbeat CPU 0 instructions: 200000001 cycles: 1049927455 heartbeat IPC: 0.14868 cumulative IPC: 0.146438 (Simulation time: 0 hr 43 min 20 sec) 
Heartbeat CPU 0 instructions: 210000000 cycles: 1117139610 heartbeat IPC: 0.148783 cumulative IPC: 0.146582 (Simulation time: 0 hr 44 min 30 sec) 
Heartbeat CPU 0 instructions: 220000000 cycles: 1184431524 heartbeat IPC: 0.148606 cumulative IPC: 0.1467 (Simulation time: 0 hr 45 min 40 sec) 
Heartbeat CPU 0 instructions: 230000003 cycles: 1251244998 heartbeat IPC: 0.14967 cumulative IPC: 0.146862 (Simulation time: 0 hr 46 min 49 sec) 
Heartbeat CPU 0 instructions: 240000000 cycles: 1318483558 heartbeat IPC: 0.148724 cumulative IPC: 0.146958 (Simulation time: 0 hr 47 min 57 sec) 
Heartbeat CPU 0 instructions: 250000001 cycles: 1386115308 heartbeat IPC: 0.14786 cumulative IPC: 0.147003 (Simulation time: 0 hr 49 min 5 sec) 
Finished CPU 0 instructions: 200000001 cycles: 1360514529 cumulative IPC: 0.147003 (Simulation time: 0 hr 49 min 5 sec) 

ChampSim completed all CPUs

Region of Interest Statistics

CPU 0 cumulative IPC: 0.147003 instructions: 200000001 cycles: 1360514529
ITLB TOTAL     ACCESS:   35433222  HIT:   35433222  MISS:          0  HIT %:        100  MISS %:          0   MPKI: 0
ITLB Test counter:          0
ITLB LOAD TRANSLATION ACCESS:   35433222  HIT:   35433222  MISS:          0  HIT %:        100  MISS %:          0   MPKI: 0
ITLB PREFETCH  REQUESTED:          0  ISSUED:          0  USEFUL:          0  USELESS:          0
ITLB USEFUL LOAD PREFETCHES:          0 PREFETCH ISSUED TO LOWER LEVEL:          0  ACCURACY: -nan
ITLB TIMELY PREFETCHES:          0 LATE PREFETCHES: 0 DROPPED PREFETCHES: 0
ITLB COMMIT LATE PREFETCHES: 0 MISSED OPPORTUNITY: 0 LATE IN PQ: 0 UNCOVERED: 0
ITLB COMMIT LATE MSHR PREFETCHES: 0
ITLB MPKI TOTAL: 0 MSHR LATE: 0 PQ LATE: 0 COMMIT LATE: 0 MISSED OPPORTUNITY: 0 UNCOVERED: 0
ITLB PREFETCHES SAME FILL-ORIGIN LEVEL: 0 DIFFERENT FILL-ORIGIN LEVEL: 0
ITLB AVERAGE MISS LATENCY: -nan cycles
ITLB AVERAGE MISS LATENCY LOAD: -nan cycles
ITLB AVERAGE MISS LATENCY PREFETCH: -nan cycles
ITLB AVERAGE MSHR OCCUPANCY: 0
ITLB MSHR FULL: 0
ITLB RQ	ACCESS:   35446445	FORWARD:          0	MERGED:      13224	TO_CACHE:   35433221

DTLB TOTAL     ACCESS:   85806294  HIT:   80165027  MISS:    5641267  HIT %:    93.4256  MISS %:    6.57442   MPKI: 28.2063
DTLB Test counter:          0
DTLB LOAD TRANSLATION ACCESS:   85806294  HIT:   80165027  MISS:    5641267  HIT %:    93.4256  MISS %:    6.57442   MPKI: 28.2063
DTLB PREFETCH  REQUESTED:          0  ISSUED:          0  USEFUL:          0  USELESS:          0
DTLB USEFUL LOAD PREFETCHES:          0 PREFETCH ISSUED TO LOWER LEVEL:          0  ACCURACY: -nan
DTLB TIMELY PREFETCHES:          0 LATE PREFETCHES: 0 DROPPED PREFETCHES: 0
DTLB COMMIT LATE PREFETCHES: 0 MISSED OPPORTUNITY: 0 LATE IN PQ: 0 UNCOVERED: 0
DTLB COMMIT LATE MSHR PREFETCHES: 0
DTLB MPKI TOTAL: 0 MSHR LATE: 0 PQ LATE: 0 COMMIT LATE: 0 MISSED OPPORTUNITY: 0 UNCOVERED: 0
DTLB PREFETCHES SAME FILL-ORIGIN LEVEL: 0 DIFFERENT FILL-ORIGIN LEVEL: 0
DTLB AVERAGE MISS LATENCY: 463.725 cycles
DTLB AVERAGE MISS LATENCY LOAD: -nan cycles
DTLB AVERAGE MISS LATENCY PREFETCH: -nan cycles
DTLB AVERAGE MSHR OCCUPANCY: 2.17394
DTLB MSHR FULL: 0.0401697
DTLB RQ	ACCESS:  131885435	FORWARD:          0	MERGED:   13916874	TO_CACHE:  117968561

STLB TOTAL     ACCESS:    5641267  HIT:     815442  MISS:    4825825  HIT %:    14.4549  MISS %:    85.5451   MPKI: 24.1291
STLB Test counter:          0
STLB LOAD TRANSLATION ACCESS:    5641267  HIT:     815442  MISS:    4825825  HIT %:    14.4549  MISS %:    85.5451   MPKI: 24.1291
STLB PREFETCH  REQUESTED:          0  ISSUED:          0  USEFUL:          0  USELESS:          0
STLB USEFUL LOAD PREFETCHES:          0 PREFETCH ISSUED TO LOWER LEVEL:          0  ACCURACY: -nan
STLB TIMELY PREFETCHES:          0 LATE PREFETCHES: 0 DROPPED PREFETCHES: 0
STLB COMMIT LATE PREFETCHES: 0 MISSED OPPORTUNITY: 0 LATE IN PQ: 0 UNCOVERED: 0
STLB COMMIT LATE MSHR PREFETCHES: 0
STLB MPKI TOTAL: 0 MSHR LATE: 0 PQ LATE: 0 COMMIT LATE: 0 MISSED OPPORTUNITY: 0 UNCOVERED: 0
STLB PREFETCHES SAME FILL-ORIGIN LEVEL: 0 DIFFERENT FILL-ORIGIN LEVEL: 0
STLB AVERAGE MISS LATENCY: 531.484 cycles
STLB AVERAGE MISS LATENCY LOAD: -nan cycles
STLB AVERAGE MISS LATENCY PREFETCH: -nan cycles
STLB AVERAGE MSHR OCCUPANCY: 1.46048
STLB MSHR FULL: 0
STLB RQ	ACCESS:    5641272	FORWARD:          0	MERGED:          0	TO_CACHE:    5641272

STLB Hit, L1D data hit: 0
STLB Hit, L2C data hit: 0
STLB Hit, LLC data hit: 0
STLB Hit, LLC data miss: 0
STLB STLB hints to L2: 0
L1D TOTAL     ACCESS:   99725127  HIT:   81782243  MISS:   17942884  HIT %:    82.0077  MISS %:    17.9923   MPKI: 89.7144
L1D Test counter:          0
L1D LOAD      ACCESS:   60353316  HIT:   51157053  MISS:   10755727  HIT %:    84.7626  MISS %:    15.2374   MPKI: 45.9813
L1D RFO       ACCESS:   39371811  HIT:   30625190  MISS:    8746621  HIT %:    77.7846  MISS %:    22.2154   MPKI: 43.7331
L1D PREFETCH  REQUESTED:          0  ISSUED:          0  USEFUL:          0  USELESS:          0
L1D USEFUL LOAD PREFETCHES:          0 PREFETCH ISSUED TO LOWER LEVEL:          0  ACCURACY: -nan
L1D TIMELY PREFETCHES:          0 LATE PREFETCHES: 0 DROPPED PREFETCHES: 0
L1D COMMIT LATE PREFETCHES: 0 MISSED OPPORTUNITY: 0 LATE IN PQ: 0 UNCOVERED: 0
L1D COMMIT LATE MSHR PREFETCHES: 0
L1D MPKI TOTAL: 53.7786 MSHR LATE: 0 PQ LATE: 0 COMMIT LATE: 0 MISSED OPPORTUNITY: 0 UNCOVERED: 0
L1D PREFETCHES SAME FILL-ORIGIN LEVEL: 0 DIFFERENT FILL-ORIGIN LEVEL: 0
L1D AVERAGE MISS LATENCY: 273.987 cycles
L1D AVERAGE MISS LATENCY LOAD: 224.31 cycles
L1D AVERAGE MISS LATENCY PREFETCH: -nan cycles
L1D AVERAGE MSHR OCCUPANCY: 3.54471
L1D MSHR FULL: 9.15894e-05
L1D RQ	ACCESS:   80584558	FORWARD:          0	MERGED:   16503092	TO_CACHE:   61912780
L1D WQ	ACCESS:   69973103	FORWARD:    2168686	MERGED:        448	TO_CACHE:   69972655

L1D UNIQUE REGIONS ACCESSED: 0
L1D REGIONS CONFLICTS: 0
L1D Cross Page Prefetch Requests: 0
L1D Same Page Prefetch Requests: 0
L1D ROI Sum of L1D PQ occupancy: 0
L1D PREFETCHES PUSHED FROM L2C: 0
4033f0: 12270
4033c9: 42342
4033b5: 534395
4033b9: 4233938
4033a0: 4373318
L1I TOTAL     ACCESS:   35446446  HIT:   35446446  MISS:          0  HIT %:        100  MISS %:          0   MPKI: 0
L1I Test counter:          0
L1I LOAD      ACCESS:   35446446  HIT:   35446446  MISS:          0  HIT %:        100  MISS %:          0   MPKI: 0
L1I PREFETCH  REQUESTED:          0  ISSUED:          0  USEFUL:          0  USELESS:          0
L1I USEFUL LOAD PREFETCHES:          0 PREFETCH ISSUED TO LOWER LEVEL:          0  ACCURACY: -nan
L1I TIMELY PREFETCHES:          0 LATE PREFETCHES: 0 DROPPED PREFETCHES: 0
L1I COMMIT LATE PREFETCHES: 0 MISSED OPPORTUNITY: 0 LATE IN PQ: 0 UNCOVERED: 0
L1I COMMIT LATE MSHR PREFETCHES: 0
L1I MPKI TOTAL: 0 MSHR LATE: 0 PQ LATE: 0 COMMIT LATE: 0 MISSED OPPORTUNITY: 0 UNCOVERED: 0
L1I PREFETCHES SAME FILL-ORIGIN LEVEL: 0 DIFFERENT FILL-ORIGIN LEVEL: 0
L1I AVERAGE MISS LATENCY: -nan cycles
L1I AVERAGE MISS LATENCY LOAD: -nan cycles
L1I AVERAGE MISS LATENCY PREFETCH: -nan cycles
L1I AVERAGE MSHR OCCUPANCY: 0
L1I MSHR FULL: 0
L1I RQ	ACCESS:   59464259	FORWARD:          0	MERGED:   24017814	TO_CACHE:   35446445

BTB TOTAL     ACCESS:   20480033  HIT:   20480028  MISS:          5  HIT %:        100  MISS %: 2.4414e-05   MPKI: 2.5e-05
BTB Test counter:          0
BTB BRANCH_DIRECT_JUMP	ACCESS:    2986815  HIT:    2986814  MISS:          1
BTB BRANCH_INDIRECT	ACCESS:          0  HIT:          0  MISS:          0
BTB BRANCH_CONDITIONAL	ACCESS:    8746594  HIT:    8746592  MISS:          2
BTB BRANCH_DIRECT_CALL	ACCESS:    4373312  HIT:    4373311  MISS:          1
BTB BRANCH_INDIRECT_CALL	ACCESS:          0  HIT:          0  MISS:          0
BTB BRANCH_RETURN	ACCESS:    4373312  HIT:    4373311  MISS:          1
BTB BRANCH_OTHER ACCESS:          0  HIT:          0  MISS:          0

L2C TOTAL     ACCESS:   42796292  HIT:   21785168  MISS:   21011124  HIT %:    50.9043  MISS %:    49.0957   MPKI: 105.056
L2C Test counter:          0
L2C LOAD      ACCESS:    9196239  HIT:    1058112  MISS:    8138128  HIT %:    11.5059  MISS %:    88.4941   MPKI: 40.6906
L2C DATA LOAD MPKI: 40.6906
L2C INSTRUCTION LOAD MPKI: 0
L2C RFO       ACCESS:    8746620  HIT:       1549  MISS:    8745071  HIT %:  0.0177097  MISS %:    99.9823   MPKI: 43.7254
L2C WRITEBACK ACCESS:   17942884  HIT:   17936928  MISS:       5956  HIT %:    99.9668  MISS %:  0.0331942   MPKI: 0.02978
L2C LOAD TRANSLATION ACCESS:    6910549  HIT:    2788579  MISS:    4121970  HIT %:    40.3525  MISS %:    59.6475   MPKI: 20.6098
L2C PREFETCH  REQUESTED:          0  ISSUED:          0  USEFUL:          0  USELESS:          0
L2C USEFUL LOAD PREFETCHES:          0 PREFETCH ISSUED TO LOWER LEVEL:          0  ACCURACY: -nan
L2C TIMELY PREFETCHES:          0 LATE PREFETCHES: 0 DROPPED PREFETCHES: 0
L2C COMMIT LATE PREFETCHES: 0 MISSED OPPORTUNITY: 0 LATE IN PQ: 0 UNCOVERED: 0
L2C COMMIT LATE MSHR PREFETCHES: 0
L2C MPKI TOTAL: 40.6906 MSHR LATE: 0 PQ LATE: 0 COMMIT LATE: 0 MISSED OPPORTUNITY: 0 UNCOVERED: 0
L2C PREFETCHES SAME FILL-ORIGIN LEVEL: 0 DIFFERENT FILL-ORIGIN LEVEL: 0
L2C AVERAGE MISS LATENCY: 267.816 cycles
L2C AVERAGE MISS LATENCY LOAD: 236.311 cycles
L2C AVERAGE MISS LATENCY PREFETCH: -nan cycles
L2C AVERAGE MSHR OCCUPANCY: 3.16201
L2C MSHR FULL: 0
L2C RQ	ACCESS:   24853436	FORWARD:          0	MERGED:          0	TO_CACHE:   24853412
L2C WQ	ACCESS:   17942884	FORWARD:         24	MERGED:          0	TO_CACHE:   17942884

L2C Instructions Evicting Data 0
L2C Translations Evicting Data 3313048
L2C Data Evicting Data 13571278
L2C Instructions Evicting Instructions 0
L2C Translations Evicting Instructions 0
L2C Data Evicting Instructions 0
L2C Instructions Evicting Translations 0
L2C Translations Evicting Translations 808922
L2C Data Evicting Translations 3311920
L2C Dense regions hint from L2: 0
4033f0: 12270
4033c9: 19566
4033b5: 534395
4033b9: 3198578
4033a0: 4373318
PSCL5 TOTAL     ACCESS:    4825826  HIT:    4825826  MISS:          0  HIT %:        100  MISS %:          0   MPKI: 0
PSCL5 Test counter:          0
PSCL5 LOAD TRANSLATION ACCESS:    4825826  HIT:    4825826  MISS:          0  HIT %:        100  MISS %:          0   MPKI: 0
PSCL5 PREFETCH  REQUESTED:          0  ISSUED:          0  USEFUL:          0  USELESS:          0
PSCL5 USEFUL LOAD PREFETCHES:          0 PREFETCH ISSUED TO LOWER LEVEL:          0  ACCURACY: -nan
PSCL5 TIMELY PREFETCHES:          0 LATE PREFETCHES: 0 DROPPED PREFETCHES: 0
PSCL5 COMMIT LATE PREFETCHES: 0 MISSED OPPORTUNITY: 0 LATE IN PQ: 0 UNCOVERED: 0
PSCL5 COMMIT LATE MSHR PREFETCHES: 0
PSCL5 MPKI TOTAL: 0 MSHR LATE: 0 PQ LATE: 0 COMMIT LATE: 0 MISSED OPPORTUNITY: 0 UNCOVERED: 0
PSCL5 PREFETCHES SAME FILL-ORIGIN LEVEL: 0 DIFFERENT FILL-ORIGIN LEVEL: 0

PSCL4 TOTAL     ACCESS:    4825826  HIT:    4825826  MISS:          0  HIT %:        100  MISS %:          0   MPKI: 0
PSCL4 Test counter:          0
PSCL4 LOAD TRANSLATION ACCESS:    4825826  HIT:    4825826  MISS:          0  HIT %:        100  MISS %:          0   MPKI: 0
PSCL4 PREFETCH  REQUESTED:          0  ISSUED:          0  USEFUL:          0  USELESS:          0
PSCL4 USEFUL LOAD PREFETCHES:          0 PREFETCH ISSUED TO LOWER LEVEL:          0  ACCURACY: -nan
PSCL4 TIMELY PREFETCHES:          0 LATE PREFETCHES: 0 DROPPED PREFETCHES: 0
PSCL4 COMMIT LATE PREFETCHES: 0 MISSED OPPORTUNITY: 0 LATE IN PQ: 0 UNCOVERED: 0
PSCL4 COMMIT LATE MSHR PREFETCHES: 0
PSCL4 MPKI TOTAL: 0 MSHR LATE: 0 PQ LATE: 0 COMMIT LATE: 0 MISSED OPPORTUNITY: 0 UNCOVERED: 0
PSCL4 PREFETCHES SAME FILL-ORIGIN LEVEL: 0 DIFFERENT FILL-ORIGIN LEVEL: 0

PSCL3 TOTAL     ACCESS:    4825826  HIT:    4825826  MISS:          0  HIT %:        100  MISS %:          0   MPKI: 0
PSCL3 Test counter:          0
PSCL3 LOAD TRANSLATION ACCESS:    4825826  HIT:    4825826  MISS:          0  HIT %:        100  MISS %:          0   MPKI: 0
PSCL3 PREFETCH  REQUESTED:          0  ISSUED:          0  USEFUL:          0  USELESS:          0
PSCL3 USEFUL LOAD PREFETCHES:          0 PREFETCH ISSUED TO LOWER LEVEL:          0  ACCURACY: -nan
PSCL3 TIMELY PREFETCHES:          0 LATE PREFETCHES: 0 DROPPED PREFETCHES: 0
PSCL3 COMMIT LATE PREFETCHES: 0 MISSED OPPORTUNITY: 0 LATE IN PQ: 0 UNCOVERED: 0
PSCL3 COMMIT LATE MSHR PREFETCHES: 0
PSCL3 MPKI TOTAL: 0 MSHR LATE: 0 PQ LATE: 0 COMMIT LATE: 0 MISSED OPPORTUNITY: 0 UNCOVERED: 0
PSCL3 PREFETCHES SAME FILL-ORIGIN LEVEL: 0 DIFFERENT FILL-ORIGIN LEVEL: 0

PSCL2 TOTAL     ACCESS:    4825825  HIT:    2740952  MISS:    2084873  HIT %:    56.7976  MISS %:    43.2024   MPKI: 10.4244
PSCL2 Test counter:          0
PSCL2 LOAD TRANSLATION ACCESS:    4825825  HIT:    2740952  MISS:    2084873  HIT %:    56.7976  MISS %:    43.2024   MPKI: 10.4244
PSCL2 PREFETCH  REQUESTED:          0  ISSUED:          0  USEFUL:          0  USELESS:          0
PSCL2 USEFUL LOAD PREFETCHES:          0 PREFETCH ISSUED TO LOWER LEVEL:          0  ACCURACY: -nan
PSCL2 TIMELY PREFETCHES:          0 LATE PREFETCHES: 0 DROPPED PREFETCHES: 0
PSCL2 COMMIT LATE PREFETCHES: 0 MISSED OPPORTUNITY: 0 LATE IN PQ: 0 UNCOVERED: 0
PSCL2 COMMIT LATE MSHR PREFETCHES: 0
PSCL2 MPKI TOTAL: 0 MSHR LATE: 0 PQ LATE: 0 COMMIT LATE: 0 MISSED OPPORTUNITY: 0 UNCOVERED: 0
PSCL2 PREFETCHES SAME FILL-ORIGIN LEVEL: 0 DIFFERENT FILL-ORIGIN LEVEL: 0

LLC TOTAL     ACCESS:   37889462  HIT:   19962431  MISS:   17927031  HIT %:     52.686  MISS %:     47.314   MPKI: 89.6352
LLC Test counter:          0
LLC LOAD      ACCESS:    8138105  HIT:    2049825  MISS:    6088281  HIT %:     25.188  MISS %:     74.812   MPKI: 30.4414
LLC RFO       ACCESS:    8745071  HIT:      48297  MISS:    8696774  HIT %:   0.552277  MISS %:    99.4477   MPKI: 43.4839
LLC WRITEBACK ACCESS:   16884316  HIT:   16871358  MISS:      12958  HIT %:    99.9233  MISS %:  0.0767458   MPKI: 0.06479
LLC LOAD TRANSLATION ACCESS:    4121970  HIT:     992951  MISS:    3129019  HIT %:    24.0892  MISS %:    75.9108   MPKI: 15.6451
LLC PREFETCH  REQUESTED:          0  ISSUED:          0  USEFUL:          0  USELESS:          0
LLC USEFUL LOAD PREFETCHES:          0 PREFETCH ISSUED TO LOWER LEVEL:          0  ACCURACY: -nan
LLC TIMELY PREFETCHES:          0 LATE PREFETCHES: 0 DROPPED PREFETCHES: 0
LLC COMMIT LATE PREFETCHES: 0 MISSED OPPORTUNITY: 0 LATE IN PQ: 0 UNCOVERED: 0
LLC COMMIT LATE MSHR PREFETCHES: 0
LLC MPKI TOTAL: 30.4414 MSHR LATE: 0 PQ LATE: 0 COMMIT LATE: 0 MISSED OPPORTUNITY: 0 UNCOVERED: 0
LLC PREFETCHES SAME FILL-ORIGIN LEVEL: 0 DIFFERENT FILL-ORIGIN LEVEL: 0
LLC AVERAGE MISS LATENCY: 278.495 cycles
LLC AVERAGE MISS LATENCY LOAD: 275.546 cycles
LLC AVERAGE MISS LATENCY PREFETCH: -nan cycles
LLC AVERAGE MSHR OCCUPANCY: 2.92956
LLC MSHR FULL: 0
LLC RQ	ACCESS:   21005172	FORWARD:          0	MERGED:          0	TO_CACHE:   21005150
LLC WQ	ACCESS:   16884315	FORWARD:         22	MERGED:          0	TO_CACHE:   16884315

LLC Dense regions hint to LLC: 0
4033f0: 12270
4033c9: 17575
4033b5: 534395
4033b9: 1150722
4033a0: 4373318

RAW hits: 2508502
Loads Generated: 83093059
Loads sent to L1D: 80584558
Stores Generated: 69973106
Stores sent to L1D: 69973103
Major fault: 0 Minor fault: 318411
Allocated PAGES: 318411
Total Load insts: 99830946
Total Non-spec loads: 44551403
Percentage of speculative loads: 55.3732
L1D response latency: 224.31 cycles
Load retirement latency: 428.539 cycles


DRAM Statistics
 CHANNEL 0
 RQ ROW_BUFFER_HIT:      56380  ROW_BUFFER_MISS:   17854593
 DBUS_CONGESTED:         50
 WQ ROW_BUFFER_HIT:    3070438  ROW_BUFFER_MISS:   11724917  FULL:          0

 AVG_CONGESTED_CYCLE: 4
 All warmup complete: 2
Channel 0 Bank busy for read cycles: 0
Channel 0 Bank busy for write cycles: 0
Channel 0
Rank 0
0banks busy for read cycles: 1891589
0banks busy for write cycles: 4
1banks busy for read cycles: 159118168
1banks busy for write cycles: 2382124
2banks busy for read cycles: 204592404
2banks busy for write cycles: 2387751
3banks busy for read cycles: 250034129
3banks busy for write cycles: 2461887
4banks busy for read cycles: 180689498
4banks busy for write cycles: 4476137
5banks busy for read cycles: 94783385
5banks busy for write cycles: 8897424
6banks busy for read cycles: 36337667
6banks busy for write cycles: 20900472
7banks busy for read cycles: 8705859
7banks busy for write cycles: 78438739
8banks busy for read cycles: 1088724
8banks busy for write cycles: 303328569

CPU 0 Branch Prediction Accuracy: 95.2594% MPKI: 5.89095 Average ROB Occupancy at Mispredict: 113.479
Branch types
NOT_BRANCH: 175146304 87.5732%
BRANCH_DIRECT_JUMP: 2986815 1.49341%
BRANCH_INDIRECT: 0 0%
BRANCH_CONDITIONAL: 13119937 6.55997%
BRANCH_DIRECT_CALL: 4373312 2.18666%
BRANCH_INDIRECT_CALL: 0 0%
BRANCH_RETURN: 4373312 2.18666%
BRANCH_OTHER: 0 0%

DRAM PAGES: 1048576
Allocated PAGES: 318411
