
*** ChampSim Multicore Out-of-Order Simulator ***

Warmup Instructions: 50000000
Simulation Instructions: 200000000
Number of CPUs: 1
LLC sets: 2048
LLC ways: 16
Off-chip DRAM Size: 4096 MB Channels: 1 Width: 64-bit Data Rate: 6400 MT/s
CPU 0 runs /home/sumon/secure_berti/Berti_Baseline/../../traces/spec/605.mcf_s-782B.champsimtrace.xz
.xz
BTB has LRU replacement policy
ITLB has LRU replacement policy
DTLB has LRU replacement policy
STLB has LRU replacement policy
L1I has LRU replacement policy
L1D has LRU replacement policy
L2C has LRU replacement policy
LLC has LRU replacement policy
Heartbeat CPU 0 instructions: 10000001 cycles: 3773575 heartbeat IPC: 2.65001 cumulative IPC: 2.65001 (Simulation time: 0 hr 0 min 41 sec) 
Heartbeat CPU 0 instructions: 20000000 cycles: 7519239 heartbeat IPC: 2.66975 cumulative IPC: 2.65984 (Simulation time: 0 hr 1 min 22 sec) 
Heartbeat CPU 0 instructions: 30000000 cycles: 11320154 heartbeat IPC: 2.63095 cumulative IPC: 2.65014 (Simulation time: 0 hr 2 min 5 sec) 
Heartbeat CPU 0 instructions: 40000003 cycles: 15095079 heartbeat IPC: 2.64906 cumulative IPC: 2.64987 (Simulation time: 0 hr 2 min 44 sec) 
Heartbeat CPU 0 instructions: 50000000 cycles: 18912140 heartbeat IPC: 2.61982 cumulative IPC: 2.6438 (Simulation time: 0 hr 3 min 24 sec) 

Warmup complete CPU 0 instructions: 50000001 cycles: 18912141 (Simulation time: 0 hr 3 min 24 sec) 

Heartbeat CPU 0 instructions: 60000000 cycles: 83784425 heartbeat IPC: 0.154149 cumulative IPC: 0.154149 (Simulation time: 0 hr 4 min 40 sec) 
Heartbeat CPU 0 instructions: 70000002 cycles: 148294701 heartbeat IPC: 0.155014 cumulative IPC: 0.15458 (Simulation time: 0 hr 5 min 56 sec) 
Heartbeat CPU 0 instructions: 80000002 cycles: 212860779 heartbeat IPC: 0.15488 cumulative IPC: 0.15468 (Simulation time: 0 hr 7 min 17 sec) 
Heartbeat CPU 0 instructions: 90000000 cycles: 281517362 heartbeat IPC: 0.145652 cumulative IPC: 0.15232 (Simulation time: 0 hr 8 min 38 sec) 
Heartbeat CPU 0 instructions: 100000001 cycles: 352445861 heartbeat IPC: 0.140987 cumulative IPC: 0.14991 (Simulation time: 0 hr 10 min 4 sec) 
Heartbeat CPU 0 instructions: 110000000 cycles: 425129317 heartbeat IPC: 0.137583 cumulative IPC: 0.147704 (Simulation time: 0 hr 11 min 35 sec) 
Heartbeat CPU 0 instructions: 120000000 cycles: 494467688 heartbeat IPC: 0.14422 cumulative IPC: 0.147196 (Simulation time: 0 hr 12 min 59 sec) 
Heartbeat CPU 0 instructions: 130000000 cycles: 561312683 heartbeat IPC: 0.1496 cumulative IPC: 0.147492 (Simulation time: 0 hr 14 min 22 sec) 
Heartbeat CPU 0 instructions: 140000001 cycles: 626242789 heartbeat IPC: 0.154012 cumulative IPC: 0.148189 (Simulation time: 0 hr 15 min 52 sec) 
Heartbeat CPU 0 instructions: 150000000 cycles: 692290749 heartbeat IPC: 0.151405 cumulative IPC: 0.148505 (Simulation time: 0 hr 17 min 21 sec) 
Heartbeat CPU 0 instructions: 160000002 cycles: 759638897 heartbeat IPC: 0.148482 cumulative IPC: 0.148503 (Simulation time: 0 hr 19 min 34 sec) 
Heartbeat CPU 0 instructions: 170000001 cycles: 828213165 heartbeat IPC: 0.145827 cumulative IPC: 0.148276 (Simulation time: 0 hr 21 min 54 sec) 
Heartbeat CPU 0 instructions: 180000002 cycles: 895884372 heartbeat IPC: 0.147773 cumulative IPC: 0.148237 (Simulation time: 0 hr 24 min 20 sec) 
Heartbeat CPU 0 instructions: 190000003 cycles: 970499648 heartbeat IPC: 0.134021 cumulative IPC: 0.147123 (Simulation time: 0 hr 26 min 53 sec) 
Heartbeat CPU 0 instructions: 200000002 cycles: 1045280005 heartbeat IPC: 0.133725 cumulative IPC: 0.146146 (Simulation time: 0 hr 30 min 21 sec) 
Heartbeat CPU 0 instructions: 210000003 cycles: 1118088209 heartbeat IPC: 0.137347 cumulative IPC: 0.145564 (Simulation time: 0 hr 33 min 27 sec) 
Heartbeat CPU 0 instructions: 220000000 cycles: 1189552644 heartbeat IPC: 0.13993 cumulative IPC: 0.14522 (Simulation time: 0 hr 36 min 42 sec) 
Heartbeat CPU 0 instructions: 230000001 cycles: 1260749365 heartbeat IPC: 0.140456 cumulative IPC: 0.144947 (Simulation time: 0 hr 37 min 36 sec) 
Heartbeat CPU 0 instructions: 240000003 cycles: 1330684147 heartbeat IPC: 0.14299 cumulative IPC: 0.144842 (Simulation time: 0 hr 38 min 32 sec) 
Heartbeat CPU 0 instructions: 250000002 cycles: 1398776094 heartbeat IPC: 0.14686 cumulative IPC: 0.144942 (Simulation time: 0 hr 39 min 34 sec) 
Finished CPU 0 instructions: 200000001 cycles: 1379863953 cumulative IPC: 0.144942 (Simulation time: 0 hr 39 min 34 sec) 

ChampSim completed all CPUs

Region of Interest Statistics

CPU 0 cumulative IPC: 0.144942 instructions: 200000001 cycles: 1379863953
ITLB TOTAL     ACCESS:   32904560  HIT:   32904560  MISS:          0  HIT %:        100  MISS %:          0   MPKI: 0
ITLB Test counter:          0
ITLB LOAD TRANSLATION ACCESS:   32904560  HIT:   32904560  MISS:          0  HIT %:        100  MISS %:          0   MPKI: 0
ITLB PREFETCH  REQUESTED:          0  ISSUED:          0  USEFUL:          0  USELESS:          0
ITLB USEFUL LOAD PREFETCHES:          0 PREFETCH ISSUED TO LOWER LEVEL:          0  ACCURACY: -nan
ITLB TIMELY PREFETCHES:          0 LATE PREFETCHES: 0 DROPPED PREFETCHES: 0
ITLB COMMIT LATE PREFETCHES: 0 MISSED OPPORTUNITY: 0 LATE IN PQ: 0 UNCOVERED: 0
ITLB COMMIT LATE MSHR PREFETCHES: 0
ITLB MPKI TOTAL: 0 MSHR LATE: 0 PQ LATE: 0 COMMIT LATE: 0 MISSED OPPORTUNITY: 0 UNCOVERED: 0
ITLB PREFETCHES SAME FILL-ORIGIN LEVEL: 0 DIFFERENT FILL-ORIGIN LEVEL: 0
ITLB AVERAGE MISS LATENCY: -nan cycles
ITLB AVERAGE MISS LATENCY LOAD: -nan cycles
ITLB AVERAGE MISS LATENCY PREFETCH: -nan cycles
ITLB AVERAGE MSHR OCCUPANCY: 0
ITLB MSHR FULL: 0
ITLB RQ	ACCESS:   33260719	FORWARD:          0	MERGED:     356159	TO_CACHE:   32904560

DTLB TOTAL     ACCESS:   41649734  HIT:   24023437  MISS:   17626297  HIT %:    57.6797  MISS %:    42.3203   MPKI: 88.1315
DTLB Test counter:          0
DTLB LOAD TRANSLATION ACCESS:   41649734  HIT:   24023437  MISS:   17626297  HIT %:    57.6797  MISS %:    42.3203   MPKI: 88.1315
DTLB PREFETCH  REQUESTED:          0  ISSUED:          0  USEFUL:          0  USELESS:          0
DTLB USEFUL LOAD PREFETCHES:          0 PREFETCH ISSUED TO LOWER LEVEL:          0  ACCURACY: -nan
DTLB TIMELY PREFETCHES:          0 LATE PREFETCHES: 0 DROPPED PREFETCHES: 0
DTLB COMMIT LATE PREFETCHES: 0 MISSED OPPORTUNITY: 0 LATE IN PQ: 0 UNCOVERED: 0
DTLB COMMIT LATE MSHR PREFETCHES: 0
DTLB MPKI TOTAL: 0 MSHR LATE: 0 PQ LATE: 0 COMMIT LATE: 0 MISSED OPPORTUNITY: 0 UNCOVERED: 0
DTLB PREFETCHES SAME FILL-ORIGIN LEVEL: 0 DIFFERENT FILL-ORIGIN LEVEL: 0
DTLB AVERAGE MISS LATENCY: 10.9074 cycles
DTLB AVERAGE MISS LATENCY LOAD: -nan cycles
DTLB AVERAGE MISS LATENCY PREFETCH: -nan cycles
DTLB AVERAGE MSHR OCCUPANCY: 0.208402
DTLB MSHR FULL: 2.3856e-08
DTLB RQ	ACCESS:   45822446	FORWARD:          0	MERGED:    3904254	TO_CACHE:   41918192

STLB TOTAL     ACCESS:   17626297  HIT:   17388413  MISS:     237884  HIT %:    98.6504  MISS %:     1.3496   MPKI: 1.18942
STLB Test counter:          0
STLB LOAD TRANSLATION ACCESS:   17626297  HIT:   17388413  MISS:     237884  HIT %:    98.6504  MISS %:     1.3496   MPKI: 1.18942
STLB PREFETCH  REQUESTED:          0  ISSUED:          0  USEFUL:          0  USELESS:          0
STLB USEFUL LOAD PREFETCHES:          0 PREFETCH ISSUED TO LOWER LEVEL:          0  ACCURACY: -nan
STLB TIMELY PREFETCHES:          0 LATE PREFETCHES: 0 DROPPED PREFETCHES: 0
STLB COMMIT LATE PREFETCHES: 0 MISSED OPPORTUNITY: 0 LATE IN PQ: 0 UNCOVERED: 0
STLB COMMIT LATE MSHR PREFETCHES: 0
STLB MPKI TOTAL: 0 MSHR LATE: 0 PQ LATE: 0 COMMIT LATE: 0 MISSED OPPORTUNITY: 0 UNCOVERED: 0
STLB PREFETCHES SAME FILL-ORIGIN LEVEL: 0 DIFFERENT FILL-ORIGIN LEVEL: 0
STLB AVERAGE MISS LATENCY: 135.297 cycles
STLB AVERAGE MISS LATENCY LOAD: -nan cycles
STLB AVERAGE MISS LATENCY PREFETCH: -nan cycles
STLB AVERAGE MSHR OCCUPANCY: 0.0113963
STLB MSHR FULL: 0
STLB RQ	ACCESS:   17626297	FORWARD:          0	MERGED:          0	TO_CACHE:   17626297

STLB Hit, L1D data hit: 0
STLB Hit, L2C data hit: 0
STLB Hit, LLC data hit: 0
STLB Hit, LLC data miss: 0
STLB STLB hints to L2: 0
L1D TOTAL     ACCESS:   44062916  HIT:   13113041  MISS:   30949875  HIT %:    29.7598  MISS %:    70.2402   MPKI: 154.749
L1D Test counter:          0
L1D LOAD      ACCESS:   40766424  HIT:    9877069  MISS:   32495208  HIT %:    24.2284  MISS %:    75.7716   MPKI: 154.447
L1D RFO       ACCESS:    3296492  HIT:    3235972  MISS:      60520  HIT %:    98.1641  MISS %:    1.83589   MPKI: 0.3026
L1D PREFETCH  REQUESTED:          0  ISSUED:          0  USEFUL:          0  USELESS:          0
L1D USEFUL LOAD PREFETCHES:          0 PREFETCH ISSUED TO LOWER LEVEL:          0  ACCURACY: -nan
L1D TIMELY PREFETCHES:          0 LATE PREFETCHES: 0 DROPPED PREFETCHES: 0
L1D COMMIT LATE PREFETCHES: 0 MISSED OPPORTUNITY: 0 LATE IN PQ: 0 UNCOVERED: 0
L1D COMMIT LATE MSHR PREFETCHES: 0
L1D MPKI TOTAL: 162.476 MSHR LATE: 0 PQ LATE: 0 COMMIT LATE: 0 MISSED OPPORTUNITY: 0 UNCOVERED: 0
L1D PREFETCHES SAME FILL-ORIGIN LEVEL: 0 DIFFERENT FILL-ORIGIN LEVEL: 0
L1D AVERAGE MISS LATENCY: 109.063 cycles
L1D AVERAGE MISS LATENCY LOAD: 109.152 cycles
L1D AVERAGE MISS LATENCY PREFETCH: -nan cycles
L1D AVERAGE MSHR OCCUPANCY: 2.64619
L1D MSHR FULL: 0
L1D RQ	ACCESS:   71258674	FORWARD:          0	MERGED:   28351872	TO_CACHE:   42372279
L1D WQ	ACCESS:    3578449	FORWARD:     534523	MERGED:     128282	TO_CACHE:    3450167

L1D UNIQUE REGIONS ACCESSED: 0
L1D REGIONS CONFLICTS: 0
L1D Cross Page Prefetch Requests: 0
L1D Same Page Prefetch Requests: 0
L1D ROI Sum of L1D PQ occupancy: 0
L1D PREFETCHES PUSHED FROM L2C: 0
404648: 1
404076: 1
404a65: 1
407bb5: 2
403d86: 5
4048cd: 5
403d20: 5
403db8: 9
403d28: 12
403d76: 15
403e42: 15
4048e9: 15
403d17: 18
4044b7: 22
404684: 22
403d7d: 22
4046c8: 23
403d44: 24
403d6c: 25
403cf4: 25
403d4d: 37
4048a0: 61
403d13: 96
403d8d: 98
40459f: 150
4045e1: 194
403ca9: 205
403ce0: 211
403ed7: 216
403ea0: 223
403f18: 252
403e60: 395
403e64: 402
4048a6: 445
403e54: 455
403e50: 456
4045db: 612
404caa: 635
404990: 733
40499c: 733
404b90: 883
404cae: 1018
4044bf: 1750
404cec: 1750
4044fc: 1750
40465d: 1750
4045bd: 1750
404ce3: 1750
403f02: 2119
4048b1: 2268
4048aa: 2719
404a08: 3680
404a4b: 3857
403eb0: 4176
404820: 4316
403ef3: 4457
404a14: 4655
403ee8: 6537
404841: 6541
404844: 7929
404823: 8564
404826: 9584
4048e0: 10106
4048b8: 11678
4048b4: 17108
4048bf: 17451
4048c3: 20273
403eb4: 20814
403eec: 26705
403e9a: 27387
403ee2: 34028
403cc6: 38630
403ce9: 40621
403e90: 44634
403e94: 47618
40482f: 61087
4048bc: 89923
40483c: 90788
40483f: 101916
403cc0: 154289
4049d6: 1239437
4049de: 9198059
4049e5: 9572760
4049cc: 9933364
L1I TOTAL     ACCESS:   33260718  HIT:   33260718  MISS:          0  HIT %:        100  MISS %:          0   MPKI: 0
L1I Test counter:          0
L1I LOAD      ACCESS:   33260718  HIT:   33260718  MISS:          0  HIT %:        100  MISS %:          0   MPKI: 0
L1I PREFETCH  REQUESTED:          0  ISSUED:          0  USEFUL:          0  USELESS:          0
L1I USEFUL LOAD PREFETCHES:          0 PREFETCH ISSUED TO LOWER LEVEL:          0  ACCURACY: -nan
L1I TIMELY PREFETCHES:          0 LATE PREFETCHES: 0 DROPPED PREFETCHES: 0
L1I COMMIT LATE PREFETCHES: 0 MISSED OPPORTUNITY: 0 LATE IN PQ: 0 UNCOVERED: 0
L1I COMMIT LATE MSHR PREFETCHES: 0
L1I MPKI TOTAL: 0 MSHR LATE: 0 PQ LATE: 0 COMMIT LATE: 0 MISSED OPPORTUNITY: 0 UNCOVERED: 0
L1I PREFETCHES SAME FILL-ORIGIN LEVEL: 0 DIFFERENT FILL-ORIGIN LEVEL: 0
L1I AVERAGE MISS LATENCY: -nan cycles
L1I AVERAGE MISS LATENCY LOAD: -nan cycles
L1I AVERAGE MISS LATENCY PREFETCH: -nan cycles
L1I AVERAGE MSHR OCCUPANCY: 0
L1I MSHR FULL: 0
L1I RQ	ACCESS:   43802186	FORWARD:          0	MERGED:   10541467	TO_CACHE:   33260719

BTB TOTAL     ACCESS:   60210751  HIT:   60015906  MISS:     194845  HIT %:    99.6764  MISS %:   0.323605   MPKI: 0.974225
BTB Test counter:          0
BTB BRANCH_DIRECT_JUMP	ACCESS:    7722187  HIT:    7722150  MISS:         37
BTB BRANCH_INDIRECT	ACCESS:          0  HIT:          0  MISS:          0
BTB BRANCH_CONDITIONAL	ACCESS:   51083206  HIT:   51083124  MISS:         82
BTB BRANCH_DIRECT_CALL	ACCESS:     648846  HIT:     648828  MISS:         18
BTB BRANCH_INDIRECT_CALL	ACCESS:      53834  HIT:      53826  MISS:          8
BTB BRANCH_RETURN	ACCESS:     702678  HIT:     507978  MISS:     194700
BTB BRANCH_OTHER ACCESS:          0  HIT:          0  MISS:          0

L2C TOTAL     ACCESS:   31694578  HIT:    4022616  MISS:   27671962  HIT %:    12.6918  MISS %:    87.3082   MPKI: 138.36
L2C Test counter:          0
L2C LOAD      ACCESS:   30889347  HIT:    3348691  MISS:   27540655  HIT %:    10.8409  MISS %:    89.1591   MPKI: 137.703
L2C DATA LOAD MPKI: 137.703
L2C INSTRUCTION LOAD MPKI: 0
L2C RFO       ACCESS:      60520  HIT:       7957  MISS:      52563  HIT %:    13.1477  MISS %:    86.8523   MPKI: 0.262815
L2C WRITEBACK ACCESS:     503733  HIT:     503724  MISS:          9  HIT %:    99.9982  MISS %: 0.00178666   MPKI: 4.5e-05
L2C LOAD TRANSLATION ACCESS:     240978  HIT:     162244  MISS:      78734  HIT %:    67.3273  MISS %:    32.6727   MPKI: 0.39367
L2C PREFETCH  REQUESTED:          0  ISSUED:          0  USEFUL:          0  USELESS:          0
L2C USEFUL LOAD PREFETCHES:          0 PREFETCH ISSUED TO LOWER LEVEL:          0  ACCURACY: -nan
L2C TIMELY PREFETCHES:          0 LATE PREFETCHES: 0 DROPPED PREFETCHES: 0
L2C COMMIT LATE PREFETCHES: 0 MISSED OPPORTUNITY: 0 LATE IN PQ: 0 UNCOVERED: 0
L2C COMMIT LATE MSHR PREFETCHES: 0
L2C MPKI TOTAL: 137.703 MSHR LATE: 0 PQ LATE: 0 COMMIT LATE: 0 MISSED OPPORTUNITY: 0 UNCOVERED: 0
L2C PREFETCHES SAME FILL-ORIGIN LEVEL: 0 DIFFERENT FILL-ORIGIN LEVEL: 0
L2C AVERAGE MISS LATENCY: 105.41 cycles
L2C AVERAGE MISS LATENCY LOAD: 105.432 cycles
L2C AVERAGE MISS LATENCY PREFETCH: -nan cycles
L2C AVERAGE MSHR OCCUPANCY: 2.757
L2C MSHR FULL: 0
L2C RQ	ACCESS:   31190852	FORWARD:          0	MERGED:          0	TO_CACHE:   31190844
L2C WQ	ACCESS:     503733	FORWARD:          8	MERGED:          0	TO_CACHE:     503733

L2C Instructions Evicting Data 0
L2C Translations Evicting Data 78568
L2C Data Evicting Data 27514649
L2C Instructions Evicting Instructions 0
L2C Translations Evicting Instructions 0
L2C Data Evicting Instructions 0
L2C Instructions Evicting Translations 0
L2C Translations Evicting Translations 166
L2C Data Evicting Translations 78570
L2C Dense regions hint from L2: 0
404a65: 1
403e42: 2
403d86: 3
4048e9: 3
403d20: 4
4048cd: 5
403db8: 6
4046c8: 6
404684: 7
403d17: 7
403d44: 8
403cf4: 9
4048a0: 9
403d7d: 10
4044b7: 10
403d76: 10
403d28: 11
403d6c: 13
403d4d: 19
403e64: 29
403e60: 30
404caa: 36
40459f: 44
403d13: 44
403ce0: 46
4048a6: 55
403d8d: 56
403e50: 68
403e54: 73
403ca9: 122
4045e1: 157
403ed7: 214
403ea0: 222
403f18: 249
4045db: 360
4048b1: 381
4048aa: 481
404cae: 487
404b90: 521
404990: 696
40499c: 723
404a4b: 1300
404a08: 1513
4044fc: 1517
404ce3: 1687
4045bd: 1706
404cec: 1733
4044bf: 1740
40465d: 1750
403f02: 1988
404a14: 2418
404820: 3221
403ef3: 3962
403eb0: 4058
404841: 5673
403ee8: 6415
404844: 6714
404823: 7281
404826: 8167
4048e0: 9339
4048b8: 10994
4048c3: 11100
4048b4: 12795
4048bf: 16308
403eb4: 19030
403e9a: 21306
403eec: 21877
403ee2: 28504
403cc6: 38621
403ce9: 39149
403e90: 40381
403e94: 42944
40482f: 54636
4048bc: 74994
40483c: 81712
40483f: 91999
403cc0: 148089
4049d6: 1239417
4049e5: 7734899
4049de: 7801118
4049cc: 9933364
PSCL5 TOTAL     ACCESS:     237884  HIT:     237884  MISS:          0  HIT %:        100  MISS %:          0   MPKI: 0
PSCL5 Test counter:          0
PSCL5 LOAD TRANSLATION ACCESS:     237884  HIT:     237884  MISS:          0  HIT %:        100  MISS %:          0   MPKI: 0
PSCL5 PREFETCH  REQUESTED:          0  ISSUED:          0  USEFUL:          0  USELESS:          0
PSCL5 USEFUL LOAD PREFETCHES:          0 PREFETCH ISSUED TO LOWER LEVEL:          0  ACCURACY: -nan
PSCL5 TIMELY PREFETCHES:          0 LATE PREFETCHES: 0 DROPPED PREFETCHES: 0
PSCL5 COMMIT LATE PREFETCHES: 0 MISSED OPPORTUNITY: 0 LATE IN PQ: 0 UNCOVERED: 0
PSCL5 COMMIT LATE MSHR PREFETCHES: 0
PSCL5 MPKI TOTAL: 0 MSHR LATE: 0 PQ LATE: 0 COMMIT LATE: 0 MISSED OPPORTUNITY: 0 UNCOVERED: 0
PSCL5 PREFETCHES SAME FILL-ORIGIN LEVEL: 0 DIFFERENT FILL-ORIGIN LEVEL: 0

PSCL4 TOTAL     ACCESS:     237884  HIT:     237884  MISS:          0  HIT %:        100  MISS %:          0   MPKI: 0
PSCL4 Test counter:          0
PSCL4 LOAD TRANSLATION ACCESS:     237884  HIT:     237884  MISS:          0  HIT %:        100  MISS %:          0   MPKI: 0
PSCL4 PREFETCH  REQUESTED:          0  ISSUED:          0  USEFUL:          0  USELESS:          0
PSCL4 USEFUL LOAD PREFETCHES:          0 PREFETCH ISSUED TO LOWER LEVEL:          0  ACCURACY: -nan
PSCL4 TIMELY PREFETCHES:          0 LATE PREFETCHES: 0 DROPPED PREFETCHES: 0
PSCL4 COMMIT LATE PREFETCHES: 0 MISSED OPPORTUNITY: 0 LATE IN PQ: 0 UNCOVERED: 0
PSCL4 COMMIT LATE MSHR PREFETCHES: 0
PSCL4 MPKI TOTAL: 0 MSHR LATE: 0 PQ LATE: 0 COMMIT LATE: 0 MISSED OPPORTUNITY: 0 UNCOVERED: 0
PSCL4 PREFETCHES SAME FILL-ORIGIN LEVEL: 0 DIFFERENT FILL-ORIGIN LEVEL: 0

PSCL3 TOTAL     ACCESS:     237884  HIT:     237884  MISS:          0  HIT %:        100  MISS %:          0   MPKI: 0
PSCL3 Test counter:          0
PSCL3 LOAD TRANSLATION ACCESS:     237884  HIT:     237884  MISS:          0  HIT %:        100  MISS %:          0   MPKI: 0
PSCL3 PREFETCH  REQUESTED:          0  ISSUED:          0  USEFUL:          0  USELESS:          0
PSCL3 USEFUL LOAD PREFETCHES:          0 PREFETCH ISSUED TO LOWER LEVEL:          0  ACCURACY: -nan
PSCL3 TIMELY PREFETCHES:          0 LATE PREFETCHES: 0 DROPPED PREFETCHES: 0
PSCL3 COMMIT LATE PREFETCHES: 0 MISSED OPPORTUNITY: 0 LATE IN PQ: 0 UNCOVERED: 0
PSCL3 COMMIT LATE MSHR PREFETCHES: 0
PSCL3 MPKI TOTAL: 0 MSHR LATE: 0 PQ LATE: 0 COMMIT LATE: 0 MISSED OPPORTUNITY: 0 UNCOVERED: 0
PSCL3 PREFETCHES SAME FILL-ORIGIN LEVEL: 0 DIFFERENT FILL-ORIGIN LEVEL: 0

PSCL2 TOTAL     ACCESS:     237884  HIT:     234347  MISS:       3537  HIT %:    98.5131  MISS %:    1.48686   MPKI: 0.017685
PSCL2 Test counter:          0
PSCL2 LOAD TRANSLATION ACCESS:     237884  HIT:     234347  MISS:       3537  HIT %:    98.5131  MISS %:    1.48686   MPKI: 0.017685
PSCL2 PREFETCH  REQUESTED:          0  ISSUED:          0  USEFUL:          0  USELESS:          0
PSCL2 USEFUL LOAD PREFETCHES:          0 PREFETCH ISSUED TO LOWER LEVEL:          0  ACCURACY: -nan
PSCL2 TIMELY PREFETCHES:          0 LATE PREFETCHES: 0 DROPPED PREFETCHES: 0
PSCL2 COMMIT LATE PREFETCHES: 0 MISSED OPPORTUNITY: 0 LATE IN PQ: 0 UNCOVERED: 0
PSCL2 COMMIT LATE MSHR PREFETCHES: 0
PSCL2 MPKI TOTAL: 0 MSHR LATE: 0 PQ LATE: 0 COMMIT LATE: 0 MISSED OPPORTUNITY: 0 UNCOVERED: 0
PSCL2 PREFETCHES SAME FILL-ORIGIN LEVEL: 0 DIFFERENT FILL-ORIGIN LEVEL: 0

LLC TOTAL     ACCESS:   28146420  HIT:   12245575  MISS:   15900845  HIT %:    43.5067  MISS %:    56.4933   MPKI: 79.5042
LLC Test counter:          0
LLC LOAD      ACCESS:   27540654  HIT:   11692369  MISS:   15848285  HIT %:    42.4549  MISS %:    57.5451   MPKI: 79.2414
LLC RFO       ACCESS:      52562  HIT:      44299  MISS:       8263  HIT %:    84.2795  MISS %:    15.7205   MPKI: 0.041315
LLC WRITEBACK ACCESS:     474470  HIT:     473394  MISS:       1076  HIT %:    99.7732  MISS %:   0.226779   MPKI: 0.00538
LLC LOAD TRANSLATION ACCESS:      78734  HIT:      35513  MISS:      43221  HIT %:     45.105  MISS %:     54.895   MPKI: 0.216105
LLC PREFETCH  REQUESTED:          0  ISSUED:          0  USEFUL:          0  USELESS:          0
LLC USEFUL LOAD PREFETCHES:          0 PREFETCH ISSUED TO LOWER LEVEL:          0  ACCURACY: -nan
LLC TIMELY PREFETCHES:          0 LATE PREFETCHES: 0 DROPPED PREFETCHES: 0
LLC COMMIT LATE PREFETCHES: 0 MISSED OPPORTUNITY: 0 LATE IN PQ: 0 UNCOVERED: 0
LLC COMMIT LATE MSHR PREFETCHES: 0
LLC MPKI TOTAL: 79.2414 MSHR LATE: 0 PQ LATE: 0 COMMIT LATE: 0 MISSED OPPORTUNITY: 0 UNCOVERED: 0
LLC PREFETCHES SAME FILL-ORIGIN LEVEL: 0 DIFFERENT FILL-ORIGIN LEVEL: 0
LLC AVERAGE MISS LATENCY: 130.499 cycles
LLC AVERAGE MISS LATENCY LOAD: 130.346 cycles
LLC AVERAGE MISS LATENCY PREFETCH: -nan cycles
LLC AVERAGE MSHR OCCUPANCY: 2.08157
LLC MSHR FULL: 0
LLC RQ	ACCESS:   27671952	FORWARD:          0	MERGED:          0	TO_CACHE:   27671949
LLC WQ	ACCESS:     474470	FORWARD:          3	MERGED:          0	TO_CACHE:     474470

LLC Dense regions hint to LLC: 0
4046c8: 1
4048cd: 1
404b90: 1
404a65: 1
403d7d: 1
403db8: 1
403d76: 1
403d6c: 1
403d17: 1
40459f: 2
403d4d: 3
403e64: 3
4045e1: 4
403ca9: 4
403e60: 4
403ce0: 5
404a08: 6
403d8d: 7
403d13: 8
403e50: 10
4045db: 11
403e54: 12
4045bd: 51
4044bf: 54
4044fc: 55
40465d: 77
4048b1: 84
403f18: 89
404820: 94
404cae: 96
4048aa: 108
404a14: 129
403ed7: 141
403ea0: 154
404841: 198
404823: 250
4048e0: 251
404844: 270
404826: 279
4048b8: 347
4048b4: 472
403f02: 539
4048c3: 884
4048bf: 978
403ef3: 1018
4048bc: 1327
403eb0: 1499
403ee8: 2033
40482f: 2231
40483c: 2746
40483f: 3205
403eb4: 5203
403e9a: 5657
403eec: 6340
403ee2: 6779
403e94: 11914
403e90: 12083
403cc6: 38486
403ce9: 38607
403cc0: 115474
4049e5: 783591
4049d6: 1239417
4049de: 3631623
4049cc: 9933364

RAW hits: 493828
Loads Generated: 71752505
Loads sent to L1D: 71258674
Stores Generated: 3578449
Stores sent to L1D: 3578449
Major fault: 0 Minor fault: 219750
Allocated PAGES: 219750
Total Load insts: 89017220
Total Non-spec loads: 10606316
Percentage of speculative loads: 88.0851
L1D response latency: 109.152 cycles
Load retirement latency: 253.34 cycles


DRAM Statistics
 CHANNEL 0
 RQ ROW_BUFFER_HIT:    7437935  ROW_BUFFER_MISS:    8461764
 DBUS_CONGESTED:       2130
 WQ ROW_BUFFER_HIT:      55489  ROW_BUFFER_MISS:     145552  FULL:          0

 AVG_CONGESTED_CYCLE: 4
 All warmup complete: 2
Channel 0 Bank busy for read cycles: 0
Channel 0 Bank busy for write cycles: 0
Channel 0
Rank 0
0banks busy for read cycles: 517760426
0banks busy for write cycles: 95300
1banks busy for read cycles: 418519032
1banks busy for write cycles: 18973209
2banks busy for read cycles: 209038008
2banks busy for write cycles: 3146954
3banks busy for read cycles: 111034150
3banks busy for write cycles: 1318181
4banks busy for read cycles: 53230016
4banks busy for write cycles: 811679
5banks busy for read cycles: 22118288
5banks busy for write cycles: 622193
6banks busy for read cycles: 8983284
6banks busy for write cycles: 522154
7banks busy for read cycles: 4909452
7banks busy for write cycles: 538957
8banks busy for read cycles: 7467308
8banks busy for write cycles: 775363

CPU 0 Branch Prediction Accuracy: 96.9705% MPKI: 9.2675 Average ROB Occupancy at Mispredict: 60.2976
Branch types
NOT_BRANCH: 138818930 69.4095%
BRANCH_DIRECT_JUMP: 7722187 3.86109%
BRANCH_INDIRECT: 0 0%
BRANCH_CONDITIONAL: 52053297 26.0266%
BRANCH_DIRECT_CALL: 648846 0.324423%
BRANCH_INDIRECT_CALL: 53834 0.026917%
BRANCH_RETURN: 702678 0.351339%
BRANCH_OTHER: 0 0%

DRAM PAGES: 1048576
Allocated PAGES: 219750
