
*** ChampSim Multicore Out-of-Order Simulator ***

Warmup Instructions: 50000000
Simulation Instructions: 200000000
Number of CPUs: 1
LLC sets: 2048
LLC ways: 16
Off-chip DRAM Size: 4096 MB Channels: 1 Width: 64-bit Data Rate: 6400 MT/s
CPU 0 runs /home/sumon/secure_berti/Berti_Baseline/../../traces/spec/619.lbm_s-2677B.champsimtrace.xz
.xz
BTB has LRU replacement policy
ITLB has LRU replacement policy
DTLB has LRU replacement policy
STLB has LRU replacement policy
L1I has LRU replacement policy
L1D has LRU replacement policy
L2C has LRU replacement policy
LLC has LRU replacement policy
Heartbeat CPU 0 instructions: 10000001 cycles: 2923002 heartbeat IPC: 3.42114 cumulative IPC: 3.42114 (Simulation time: 0 hr 0 min 38 sec) 
Heartbeat CPU 0 instructions: 20000001 cycles: 5835541 heartbeat IPC: 3.43343 cumulative IPC: 3.42727 (Simulation time: 0 hr 1 min 19 sec) 
Heartbeat CPU 0 instructions: 30000000 cycles: 8755666 heartbeat IPC: 3.42451 cumulative IPC: 3.42635 (Simulation time: 0 hr 2 min 4 sec) 
Heartbeat CPU 0 instructions: 40000000 cycles: 11672753 heartbeat IPC: 3.42808 cumulative IPC: 3.42678 (Simulation time: 0 hr 2 min 51 sec) 
Heartbeat CPU 0 instructions: 50000001 cycles: 14598521 heartbeat IPC: 3.41791 cumulative IPC: 3.425 (Simulation time: 0 hr 3 min 34 sec) 

Warmup complete CPU 0 instructions: 50000001 cycles: 14598521 (Simulation time: 0 hr 3 min 34 sec) 

Heartbeat CPU 0 instructions: 60000001 cycles: 37721534 heartbeat IPC: 0.43247 cumulative IPC: 0.43247 (Simulation time: 0 hr 5 min 12 sec) 
Heartbeat CPU 0 instructions: 70000000 cycles: 60613877 heartbeat IPC: 0.436827 cumulative IPC: 0.434637 (Simulation time: 0 hr 7 min 3 sec) 
Heartbeat CPU 0 instructions: 80000001 cycles: 83654982 heartbeat IPC: 0.434007 cumulative IPC: 0.434427 (Simulation time: 0 hr 8 min 53 sec) 
Heartbeat CPU 0 instructions: 90000003 cycles: 107078330 heartbeat IPC: 0.426925 cumulative IPC: 0.432527 (Simulation time: 0 hr 10 min 38 sec) 
Heartbeat CPU 0 instructions: 100000000 cycles: 130369230 heartbeat IPC: 0.429352 cumulative IPC: 0.431888 (Simulation time: 0 hr 12 min 17 sec) 
Heartbeat CPU 0 instructions: 110000000 cycles: 153807414 heartbeat IPC: 0.426654 cumulative IPC: 0.431007 (Simulation time: 0 hr 13 min 41 sec) 
Heartbeat CPU 0 instructions: 120000000 cycles: 176930183 heartbeat IPC: 0.432474 cumulative IPC: 0.431216 (Simulation time: 0 hr 15 min 6 sec) 
Heartbeat CPU 0 instructions: 130000001 cycles: 199966402 heartbeat IPC: 0.434099 cumulative IPC: 0.431574 (Simulation time: 0 hr 16 min 27 sec) 
Heartbeat CPU 0 instructions: 140000001 cycles: 223162740 heartbeat IPC: 0.431103 cumulative IPC: 0.431522 (Simulation time: 0 hr 17 min 47 sec) 
Heartbeat CPU 0 instructions: 150000002 cycles: 246550039 heartbeat IPC: 0.427583 cumulative IPC: 0.431125 (Simulation time: 0 hr 20 min 8 sec) 
Heartbeat CPU 0 instructions: 160000002 cycles: 269635944 heartbeat IPC: 0.433165 cumulative IPC: 0.431309 (Simulation time: 0 hr 23 min 10 sec) 
Heartbeat CPU 0 instructions: 170000000 cycles: 292598601 heartbeat IPC: 0.43549 cumulative IPC: 0.431655 (Simulation time: 0 hr 24 min 50 sec) 
Heartbeat CPU 0 instructions: 180000002 cycles: 314959859 heartbeat IPC: 0.447202 cumulative IPC: 0.432812 (Simulation time: 0 hr 26 min 36 sec) 
Heartbeat CPU 0 instructions: 190000001 cycles: 338089491 heartbeat IPC: 0.432346 cumulative IPC: 0.432779 (Simulation time: 0 hr 28 min 41 sec) 
Heartbeat CPU 0 instructions: 200000000 cycles: 360970363 heartbeat IPC: 0.437046 cumulative IPC: 0.433061 (Simulation time: 0 hr 30 min 52 sec) 
Heartbeat CPU 0 instructions: 210000000 cycles: 383809196 heartbeat IPC: 0.437851 cumulative IPC: 0.433357 (Simulation time: 0 hr 33 min 1 sec) 
Heartbeat CPU 0 instructions: 220000000 cycles: 407197077 heartbeat IPC: 0.427572 cumulative IPC: 0.433012 (Simulation time: 0 hr 35 min 20 sec) 
Heartbeat CPU 0 instructions: 230000000 cycles: 430756178 heartbeat IPC: 0.424464 cumulative IPC: 0.432528 (Simulation time: 0 hr 37 min 8 sec) 
Heartbeat CPU 0 instructions: 240000002 cycles: 455129134 heartbeat IPC: 0.410291 cumulative IPC: 0.431298 (Simulation time: 0 hr 38 min 11 sec) 
Heartbeat CPU 0 instructions: 250000003 cycles: 479100350 heartbeat IPC: 0.417167 cumulative IPC: 0.430569 (Simulation time: 0 hr 38 min 56 sec) 
Finished CPU 0 instructions: 200000002 cycles: 464501829 cumulative IPC: 0.430569 (Simulation time: 0 hr 38 min 56 sec) 

ChampSim completed all CPUs

Region of Interest Statistics

CPU 0 cumulative IPC: 0.430569 instructions: 200000002 cycles: 464501829
ITLB TOTAL     ACCESS:   27205912  HIT:   27205912  MISS:          0  HIT %:        100  MISS %:          0   MPKI: 0
ITLB Test counter:          0
ITLB LOAD TRANSLATION ACCESS:   27205912  HIT:   27205912  MISS:          0  HIT %:        100  MISS %:          0   MPKI: 0
ITLB PREFETCH  REQUESTED:          0  ISSUED:          0  USEFUL:          0  USELESS:          0
ITLB USEFUL LOAD PREFETCHES:          0 PREFETCH ISSUED TO LOWER LEVEL:          0  ACCURACY: -nan
ITLB TIMELY PREFETCHES:          0 LATE PREFETCHES: 0 DROPPED PREFETCHES: 0
ITLB COMMIT LATE PREFETCHES: 0 MISSED OPPORTUNITY: 0 LATE IN PQ: 0 UNCOVERED: 0
ITLB COMMIT LATE MSHR PREFETCHES: 0
ITLB MPKI TOTAL: 0 MSHR LATE: 0 PQ LATE: 0 COMMIT LATE: 0 MISSED OPPORTUNITY: 0 UNCOVERED: 0
ITLB PREFETCHES SAME FILL-ORIGIN LEVEL: 0 DIFFERENT FILL-ORIGIN LEVEL: 0
ITLB AVERAGE MISS LATENCY: -nan cycles
ITLB AVERAGE MISS LATENCY LOAD: -nan cycles
ITLB AVERAGE MISS LATENCY PREFETCH: -nan cycles
ITLB AVERAGE MSHR OCCUPANCY: 0
ITLB MSHR FULL: 0
ITLB RQ	ACCESS:   35044323	FORWARD:          0	MERGED:    7838411	TO_CACHE:   27205912

DTLB TOTAL     ACCESS:   34700865  HIT:   34424818  MISS:     276047  HIT %:    99.2045  MISS %:   0.795505   MPKI: 1.38023
DTLB Test counter:          0
DTLB LOAD TRANSLATION ACCESS:   34700865  HIT:   34424818  MISS:     276047  HIT %:    99.2045  MISS %:   0.795505   MPKI: 1.38023
DTLB PREFETCH  REQUESTED:          0  ISSUED:          0  USEFUL:          0  USELESS:          0
DTLB USEFUL LOAD PREFETCHES:          0 PREFETCH ISSUED TO LOWER LEVEL:          0  ACCURACY: -nan
DTLB TIMELY PREFETCHES:          0 LATE PREFETCHES: 0 DROPPED PREFETCHES: 0
DTLB COMMIT LATE PREFETCHES: 0 MISSED OPPORTUNITY: 0 LATE IN PQ: 0 UNCOVERED: 0
DTLB COMMIT LATE MSHR PREFETCHES: 0
DTLB MPKI TOTAL: 0 MSHR LATE: 0 PQ LATE: 0 COMMIT LATE: 0 MISSED OPPORTUNITY: 0 UNCOVERED: 0
DTLB PREFETCHES SAME FILL-ORIGIN LEVEL: 0 DIFFERENT FILL-ORIGIN LEVEL: 0
DTLB AVERAGE MISS LATENCY: 94.8522 cycles
DTLB AVERAGE MISS LATENCY LOAD: -nan cycles
DTLB AVERAGE MISS LATENCY PREFETCH: -nan cycles
DTLB AVERAGE MSHR OCCUPANCY: 0.0730633
DTLB MSHR FULL: 0
DTLB RQ	ACCESS:   53674820	FORWARD:          0	MERGED:   18863933	TO_CACHE:   34810887

STLB TOTAL     ACCESS:     276047  HIT:     126263  MISS:     149784  HIT %:    45.7397  MISS %:    54.2603   MPKI: 0.74892
STLB Test counter:          0
STLB LOAD TRANSLATION ACCESS:     276047  HIT:     126263  MISS:     149784  HIT %:    45.7397  MISS %:    54.2603   MPKI: 0.74892
STLB PREFETCH  REQUESTED:          0  ISSUED:          0  USEFUL:          0  USELESS:          0
STLB USEFUL LOAD PREFETCHES:          0 PREFETCH ISSUED TO LOWER LEVEL:          0  ACCURACY: -nan
STLB TIMELY PREFETCHES:          0 LATE PREFETCHES: 0 DROPPED PREFETCHES: 0
STLB COMMIT LATE PREFETCHES: 0 MISSED OPPORTUNITY: 0 LATE IN PQ: 0 UNCOVERED: 0
STLB COMMIT LATE MSHR PREFETCHES: 0
STLB MPKI TOTAL: 0 MSHR LATE: 0 PQ LATE: 0 COMMIT LATE: 0 MISSED OPPORTUNITY: 0 UNCOVERED: 0
STLB PREFETCHES SAME FILL-ORIGIN LEVEL: 0 DIFFERENT FILL-ORIGIN LEVEL: 0
STLB AVERAGE MISS LATENCY: 157.922 cycles
STLB AVERAGE MISS LATENCY LOAD: -nan cycles
STLB AVERAGE MISS LATENCY PREFETCH: -nan cycles
STLB AVERAGE MSHR OCCUPANCY: 0.146653
STLB MSHR FULL: 0
STLB RQ	ACCESS:     276047	FORWARD:          0	MERGED:          0	TO_CACHE:     276047

STLB Hit, L1D data hit: 0
STLB Hit, L2C data hit: 0
STLB Hit, LLC data hit: 0
STLB Hit, LLC data miss: 0
STLB STLB hints to L2: 0
L1D TOTAL     ACCESS:   52805016  HIT:   36991968  MISS:   15813048  HIT %:    70.0539  MISS %:    29.9461   MPKI: 79.0652
L1D Test counter:          0
L1D LOAD      ACCESS:   16074632  HIT:   13678572  MISS:    3127890  HIT %:    85.0942  MISS %:    14.9058   MPKI: 11.9803
L1D RFO       ACCESS:   36730384  HIT:   23313396  MISS:   13416988  HIT %:    63.4717  MISS %:    36.5283   MPKI: 67.0849
L1D PREFETCH  REQUESTED:          0  ISSUED:          0  USEFUL:          0  USELESS:          0
L1D USEFUL LOAD PREFETCHES:          0 PREFETCH ISSUED TO LOWER LEVEL:          0  ACCURACY: -nan
L1D TIMELY PREFETCHES:          0 LATE PREFETCHES: 0 DROPPED PREFETCHES: 0
L1D COMMIT LATE PREFETCHES: 0 MISSED OPPORTUNITY: 0 LATE IN PQ: 0 UNCOVERED: 0
L1D COMMIT LATE MSHR PREFETCHES: 0
L1D MPKI TOTAL: 15.6394 MSHR LATE: 0 PQ LATE: 0 COMMIT LATE: 0 MISSED OPPORTUNITY: 0 UNCOVERED: 0
L1D PREFETCHES SAME FILL-ORIGIN LEVEL: 0 DIFFERENT FILL-ORIGIN LEVEL: 0
L1D AVERAGE MISS LATENCY: 302.14 cycles
L1D AVERAGE MISS LATENCY LOAD: 446.062 cycles
L1D AVERAGE MISS LATENCY PREFETCH: -nan cycles
L1D AVERAGE MSHR OCCUPANCY: 15.1121
L1D MSHR FULL: 0.924618
L1D RQ	ACCESS:   47455183	FORWARD:          0	MERGED:   29420874	TO_CACHE:   16806460
L1D WQ	ACCESS:   36944937	FORWARD:    1227849	MERGED:      76577	TO_CACHE:   36868360

L1D UNIQUE REGIONS ACCESSED: 0
L1D REGIONS CONFLICTS: 0
L1D Cross Page Prefetch Requests: 0
L1D Same Page Prefetch Requests: 0
L1D ROI Sum of L1D PQ occupancy: 0
L1D PREFETCHES PUSHED FROM L2C: 0
402065: 17
40208c: 71
40206d: 88
4023cc: 89
401d43: 183678
401cdb: 183678
401d14: 183713
401e33: 295446
401e67: 295481
401e02: 295481
401cb0: 958318
L1I TOTAL     ACCESS:   35044322  HIT:   35044322  MISS:          0  HIT %:        100  MISS %:          0   MPKI: 0
L1I Test counter:          0
L1I LOAD      ACCESS:   35044322  HIT:   35044322  MISS:          0  HIT %:        100  MISS %:          0   MPKI: 0
L1I PREFETCH  REQUESTED:          0  ISSUED:          0  USEFUL:          0  USELESS:          0
L1I USEFUL LOAD PREFETCHES:          0 PREFETCH ISSUED TO LOWER LEVEL:          0  ACCURACY: -nan
L1I TIMELY PREFETCHES:          0 LATE PREFETCHES: 0 DROPPED PREFETCHES: 0
L1I COMMIT LATE PREFETCHES: 0 MISSED OPPORTUNITY: 0 LATE IN PQ: 0 UNCOVERED: 0
L1I COMMIT LATE MSHR PREFETCHES: 0
L1I MPKI TOTAL: 0 MSHR LATE: 0 PQ LATE: 0 COMMIT LATE: 0 MISSED OPPORTUNITY: 0 UNCOVERED: 0
L1I PREFETCHES SAME FILL-ORIGIN LEVEL: 0 DIFFERENT FILL-ORIGIN LEVEL: 0
L1I AVERAGE MISS LATENCY: -nan cycles
L1I AVERAGE MISS LATENCY LOAD: -nan cycles
L1I AVERAGE MISS LATENCY PREFETCH: -nan cycles
L1I AVERAGE MSHR OCCUPANCY: 0
L1I MSHR FULL: 0
L1I RQ	ACCESS:   51319242	FORWARD:          0	MERGED:   16274919	TO_CACHE:   35044323

BTB TOTAL     ACCESS:    3609719  HIT:    3609713  MISS:          6  HIT %:    99.9998  MISS %: 0.000166218   MPKI: 3e-05
BTB Test counter:          0
BTB BRANCH_DIRECT_JUMP	ACCESS:     590927  HIT:     590926  MISS:          1
BTB BRANCH_INDIRECT	ACCESS:          0  HIT:          0  MISS:          0
BTB BRANCH_CONDITIONAL	ACCESS:    3018792  HIT:    3018787  MISS:          5
BTB BRANCH_DIRECT_CALL	ACCESS:          0  HIT:          0  MISS:          0
BTB BRANCH_INDIRECT_CALL	ACCESS:          0  HIT:          0  MISS:          0
BTB BRANCH_RETURN	ACCESS:          0  HIT:          0  MISS:          0
BTB BRANCH_OTHER ACCESS:          0  HIT:          0  MISS:          0

L2C TOTAL     ACCESS:   29379821  HIT:   19687579  MISS:    9692242  HIT %:    67.0105  MISS %:    32.9895   MPKI: 48.4612
L2C Test counter:          0
L2C LOAD      ACCESS:    2396060  HIT:         50  MISS:    2396010  HIT %: 0.00208676  MISS %:    99.9979   MPKI: 11.98
L2C DATA LOAD MPKI: 11.98
L2C INSTRUCTION LOAD MPKI: 0
L2C RFO       ACCESS:   13416981  HIT:    6140096  MISS:    7276885  HIT %:    45.7636  MISS %:    54.2364   MPKI: 36.3844
L2C WRITEBACK ACCESS:   13416988  HIT:   13416560  MISS:        428  HIT %:    99.9968  MISS %: 0.00318999   MPKI: 0.00214
L2C LOAD TRANSLATION ACCESS:     149792  HIT:     130873  MISS:      18919  HIT %:    87.3698  MISS %:    12.6302   MPKI: 0.094595
L2C PREFETCH  REQUESTED:          0  ISSUED:          0  USEFUL:          0  USELESS:          0
L2C USEFUL LOAD PREFETCHES:          0 PREFETCH ISSUED TO LOWER LEVEL:          0  ACCURACY: -nan
L2C TIMELY PREFETCHES:          0 LATE PREFETCHES: 0 DROPPED PREFETCHES: 0
L2C COMMIT LATE PREFETCHES: 0 MISSED OPPORTUNITY: 0 LATE IN PQ: 0 UNCOVERED: 0
L2C COMMIT LATE MSHR PREFETCHES: 0
L2C MPKI TOTAL: 11.98 MSHR LATE: 0 PQ LATE: 0 COMMIT LATE: 0 MISSED OPPORTUNITY: 0 UNCOVERED: 0
L2C PREFETCHES SAME FILL-ORIGIN LEVEL: 0 DIFFERENT FILL-ORIGIN LEVEL: 0
L2C AVERAGE MISS LATENCY: 467.68 cycles
L2C AVERAGE MISS LATENCY LOAD: 429.91 cycles
L2C AVERAGE MISS LATENCY PREFETCH: -nan cycles
L2C AVERAGE MSHR OCCUPANCY: 8.88271
L2C MSHR FULL: 0
L2C RQ	ACCESS:   15962840	FORWARD:          0	MERGED:          0	TO_CACHE:   15962834
L2C WQ	ACCESS:   13416989	FORWARD:          6	MERGED:          0	TO_CACHE:   13416989

L2C Instructions Evicting Data 0
L2C Translations Evicting Data 18837
L2C Data Evicting Data 9654061
L2C Instructions Evicting Instructions 0
L2C Translations Evicting Instructions 0
L2C Data Evicting Instructions 0
L2C Instructions Evicting Translations 0
L2C Translations Evicting Translations 82
L2C Data Evicting Translations 18834
L2C Dense regions hint from L2: 0
402065: 13
40208c: 58
4023cc: 72
40206d: 72
401d43: 183678
401cdb: 183678
401d14: 183713
401e33: 295446
401e67: 295481
401e02: 295481
401cb0: 958318
PSCL5 TOTAL     ACCESS:     149784  HIT:     149784  MISS:          0  HIT %:        100  MISS %:          0   MPKI: 0
PSCL5 Test counter:          0
PSCL5 LOAD TRANSLATION ACCESS:     149784  HIT:     149784  MISS:          0  HIT %:        100  MISS %:          0   MPKI: 0
PSCL5 PREFETCH  REQUESTED:          0  ISSUED:          0  USEFUL:          0  USELESS:          0
PSCL5 USEFUL LOAD PREFETCHES:          0 PREFETCH ISSUED TO LOWER LEVEL:          0  ACCURACY: -nan
PSCL5 TIMELY PREFETCHES:          0 LATE PREFETCHES: 0 DROPPED PREFETCHES: 0
PSCL5 COMMIT LATE PREFETCHES: 0 MISSED OPPORTUNITY: 0 LATE IN PQ: 0 UNCOVERED: 0
PSCL5 COMMIT LATE MSHR PREFETCHES: 0
PSCL5 MPKI TOTAL: 0 MSHR LATE: 0 PQ LATE: 0 COMMIT LATE: 0 MISSED OPPORTUNITY: 0 UNCOVERED: 0
PSCL5 PREFETCHES SAME FILL-ORIGIN LEVEL: 0 DIFFERENT FILL-ORIGIN LEVEL: 0

PSCL4 TOTAL     ACCESS:     149784  HIT:     149784  MISS:          0  HIT %:        100  MISS %:          0   MPKI: 0
PSCL4 Test counter:          0
PSCL4 LOAD TRANSLATION ACCESS:     149784  HIT:     149784  MISS:          0  HIT %:        100  MISS %:          0   MPKI: 0
PSCL4 PREFETCH  REQUESTED:          0  ISSUED:          0  USEFUL:          0  USELESS:          0
PSCL4 USEFUL LOAD PREFETCHES:          0 PREFETCH ISSUED TO LOWER LEVEL:          0  ACCURACY: -nan
PSCL4 TIMELY PREFETCHES:          0 LATE PREFETCHES: 0 DROPPED PREFETCHES: 0
PSCL4 COMMIT LATE PREFETCHES: 0 MISSED OPPORTUNITY: 0 LATE IN PQ: 0 UNCOVERED: 0
PSCL4 COMMIT LATE MSHR PREFETCHES: 0
PSCL4 MPKI TOTAL: 0 MSHR LATE: 0 PQ LATE: 0 COMMIT LATE: 0 MISSED OPPORTUNITY: 0 UNCOVERED: 0
PSCL4 PREFETCHES SAME FILL-ORIGIN LEVEL: 0 DIFFERENT FILL-ORIGIN LEVEL: 0

PSCL3 TOTAL     ACCESS:     149784  HIT:     149784  MISS:          0  HIT %:        100  MISS %:          0   MPKI: 0
PSCL3 Test counter:          0
PSCL3 LOAD TRANSLATION ACCESS:     149784  HIT:     149784  MISS:          0  HIT %:        100  MISS %:          0   MPKI: 0
PSCL3 PREFETCH  REQUESTED:          0  ISSUED:          0  USEFUL:          0  USELESS:          0
PSCL3 USEFUL LOAD PREFETCHES:          0 PREFETCH ISSUED TO LOWER LEVEL:          0  ACCURACY: -nan
PSCL3 TIMELY PREFETCHES:          0 LATE PREFETCHES: 0 DROPPED PREFETCHES: 0
PSCL3 COMMIT LATE PREFETCHES: 0 MISSED OPPORTUNITY: 0 LATE IN PQ: 0 UNCOVERED: 0
PSCL3 COMMIT LATE MSHR PREFETCHES: 0
PSCL3 MPKI TOTAL: 0 MSHR LATE: 0 PQ LATE: 0 COMMIT LATE: 0 MISSED OPPORTUNITY: 0 UNCOVERED: 0
PSCL3 PREFETCHES SAME FILL-ORIGIN LEVEL: 0 DIFFERENT FILL-ORIGIN LEVEL: 0

PSCL2 TOTAL     ACCESS:     149784  HIT:     149630  MISS:        154  HIT %:    99.8972  MISS %:   0.102815   MPKI: 0.00077
PSCL2 Test counter:          0
PSCL2 LOAD TRANSLATION ACCESS:     149784  HIT:     149630  MISS:        154  HIT %:    99.8972  MISS %:   0.102815   MPKI: 0.00077
PSCL2 PREFETCH  REQUESTED:          0  ISSUED:          0  USEFUL:          0  USELESS:          0
PSCL2 USEFUL LOAD PREFETCHES:          0 PREFETCH ISSUED TO LOWER LEVEL:          0  ACCURACY: -nan
PSCL2 TIMELY PREFETCHES:          0 LATE PREFETCHES: 0 DROPPED PREFETCHES: 0
PSCL2 COMMIT LATE PREFETCHES: 0 MISSED OPPORTUNITY: 0 LATE IN PQ: 0 UNCOVERED: 0
PSCL2 COMMIT LATE MSHR PREFETCHES: 0
PSCL2 MPKI TOTAL: 0 MSHR LATE: 0 PQ LATE: 0 COMMIT LATE: 0 MISSED OPPORTUNITY: 0 UNCOVERED: 0
PSCL2 PREFETCHES SAME FILL-ORIGIN LEVEL: 0 DIFFERENT FILL-ORIGIN LEVEL: 0

LLC TOTAL     ACCESS:   16968451  HIT:    7365830  MISS:    9602621  HIT %:     43.409  MISS %:     56.591   MPKI: 48.0131
LLC Test counter:          0
LLC LOAD      ACCESS:    2396010  HIT:         47  MISS:    2395963  HIT %: 0.00196159  MISS %:     99.998   MPKI: 11.9798
LLC RFO       ACCESS:    7276884  HIT:      89501  MISS:    7187383  HIT %:    1.22994  MISS %:    98.7701   MPKI: 35.9369
LLC WRITEBACK ACCESS:    7276638  HIT:    7276282  MISS:        356  HIT %:    99.9951  MISS %: 0.00489237   MPKI: 0.00178
LLC LOAD TRANSLATION ACCESS:      18919  HIT:          0  MISS:      18919  HIT %:          0  MISS %:        100   MPKI: 0.094595
LLC PREFETCH  REQUESTED:          0  ISSUED:          0  USEFUL:          0  USELESS:          0
LLC USEFUL LOAD PREFETCHES:          0 PREFETCH ISSUED TO LOWER LEVEL:          0  ACCURACY: -nan
LLC TIMELY PREFETCHES:          0 LATE PREFETCHES: 0 DROPPED PREFETCHES: 0
LLC COMMIT LATE PREFETCHES: 0 MISSED OPPORTUNITY: 0 LATE IN PQ: 0 UNCOVERED: 0
LLC COMMIT LATE MSHR PREFETCHES: 0
LLC MPKI TOTAL: 11.9798 MSHR LATE: 0 PQ LATE: 0 COMMIT LATE: 0 MISSED OPPORTUNITY: 0 UNCOVERED: 0
LLC PREFETCHES SAME FILL-ORIGIN LEVEL: 0 DIFFERENT FILL-ORIGIN LEVEL: 0
LLC AVERAGE MISS LATENCY: 441.348 cycles
LLC AVERAGE MISS LATENCY LOAD: 399.59 cycles
LLC AVERAGE MISS LATENCY PREFETCH: -nan cycles
LLC AVERAGE MSHR OCCUPANCY: 8.64434
LLC MSHR FULL: 0
LLC RQ	ACCESS:    9691815	FORWARD:          0	MERGED:          0	TO_CACHE:    9691814
LLC WQ	ACCESS:    7276639	FORWARD:          1	MERGED:          0	TO_CACHE:    7276639

LLC Dense regions hint to LLC: 0
402065: 9
40208c: 46
40206d: 56
4023cc: 57
401d43: 183678
401cdb: 183678
401d14: 183713
401e33: 295446
401e67: 295481
401e02: 295481
401cb0: 958318

RAW hits: 4776291
Loads Generated: 52231474
Loads sent to L1D: 47455183
Stores Generated: 36944938
Stores sent to L1D: 36944937
Major fault: 0 Minor fault: 96650
Allocated PAGES: 96650
Total Load insts: 58987554
Total Non-spec loads: 2205962
Percentage of speculative loads: 96.2603
L1D response latency: 446.062 cycles
Load retirement latency: 713.635 cycles


DRAM Statistics
 CHANNEL 0
 RQ ROW_BUFFER_HIT:     459691  ROW_BUFFER_MISS:    9142574
 DBUS_CONGESTED:          2
 WQ ROW_BUFFER_HIT:    1803035  ROW_BUFFER_MISS:    5382412  FULL:          0

 AVG_CONGESTED_CYCLE: 3
 All warmup complete: 2
Channel 0 Bank busy for read cycles: 0
Channel 0 Bank busy for write cycles: 0
Channel 0
Rank 0
0banks busy for read cycles: 387423
0banks busy for write cycles: 8
1banks busy for read cycles: 34384099
1banks busy for write cycles: 806200
2banks busy for read cycles: 15669236
2banks busy for write cycles: 807010
3banks busy for read cycles: 16012753
3banks busy for write cycles: 809310
4banks busy for read cycles: 54908634
4banks busy for write cycles: 810719
5banks busy for read cycles: 63366175
5banks busy for write cycles: 812259
6banks busy for read cycles: 43041345
6banks busy for write cycles: 818354
7banks busy for read cycles: 43076071
7banks busy for write cycles: 8048466
8banks busy for read cycles: 39800546
8banks busy for write cycles: 140943222

CPU 0 Branch Prediction Accuracy: 97.0951% MPKI: 0.52429 Average ROB Occupancy at Mispredict: 290.102
Branch types
NOT_BRANCH: 196390267 98.1951%
BRANCH_DIRECT_JUMP: 590927 0.295463%
BRANCH_INDIRECT: 0 0%
BRANCH_CONDITIONAL: 3018804 1.5094%
BRANCH_DIRECT_CALL: 0 0%
BRANCH_INDIRECT_CALL: 0 0%
BRANCH_RETURN: 0 0%
BRANCH_OTHER: 0 0%

DRAM PAGES: 1048576
Allocated PAGES: 96650
