
*** ChampSim Multicore Out-of-Order Simulator ***

Warmup Instructions: 50000000
Simulation Instructions: 200000000
Number of CPUs: 1
LLC sets: 2048
LLC ways: 16
Off-chip DRAM Size: 4096 MB Channels: 1 Width: 64-bit Data Rate: 6400 MT/s
CPU 0 runs /home/sumon/secure_berti/Berti_Baseline/../../traces/spec/620.omnetpp_s-874B.champsimtrace.xz
.xz
BTB has LRU replacement policy
ITLB has LRU replacement policy
DTLB has LRU replacement policy
STLB has LRU replacement policy
L1I has LRU replacement policy
L1D has LRU replacement policy
L2C has LRU replacement policy
LLC has LRU replacement policy
Heartbeat CPU 0 instructions: 10000001 cycles: 3905065 heartbeat IPC: 2.56078 cumulative IPC: 2.56078 (Simulation time: 0 hr 0 min 44 sec) 
Heartbeat CPU 0 instructions: 20000000 cycles: 7806425 heartbeat IPC: 2.56321 cumulative IPC: 2.56199 (Simulation time: 0 hr 1 min 26 sec) 
Heartbeat CPU 0 instructions: 30000003 cycles: 11703540 heartbeat IPC: 2.566 cumulative IPC: 2.56333 (Simulation time: 0 hr 2 min 7 sec) 
Heartbeat CPU 0 instructions: 40000001 cycles: 15609644 heartbeat IPC: 2.5601 cumulative IPC: 2.56252 (Simulation time: 0 hr 2 min 47 sec) 
Heartbeat CPU 0 instructions: 50000000 cycles: 19517200 heartbeat IPC: 2.55914 cumulative IPC: 2.56184 (Simulation time: 0 hr 3 min 28 sec) 

Warmup complete CPU 0 instructions: 50000004 cycles: 19517201 (Simulation time: 0 hr 3 min 28 sec) 

Heartbeat CPU 0 instructions: 60000001 cycles: 62895713 heartbeat IPC: 0.230529 cumulative IPC: 0.230529 (Simulation time: 0 hr 4 min 34 sec) 
Heartbeat CPU 0 instructions: 70000001 cycles: 105881211 heartbeat IPC: 0.232637 cumulative IPC: 0.231578 (Simulation time: 0 hr 5 min 34 sec) 
Heartbeat CPU 0 instructions: 80000002 cycles: 149052717 heartbeat IPC: 0.231634 cumulative IPC: 0.231597 (Simulation time: 0 hr 6 min 39 sec) 
Heartbeat CPU 0 instructions: 90000001 cycles: 191647493 heartbeat IPC: 0.234771 cumulative IPC: 0.232382 (Simulation time: 0 hr 7 min 51 sec) 
Heartbeat CPU 0 instructions: 100000000 cycles: 235254975 heartbeat IPC: 0.229318 cumulative IPC: 0.231763 (Simulation time: 0 hr 9 min 3 sec) 
Heartbeat CPU 0 instructions: 110000000 cycles: 278078629 heartbeat IPC: 0.233516 cumulative IPC: 0.232053 (Simulation time: 0 hr 10 min 28 sec) 
Heartbeat CPU 0 instructions: 120000003 cycles: 321188963 heartbeat IPC: 0.231963 cumulative IPC: 0.23204 (Simulation time: 0 hr 11 min 40 sec) 
Heartbeat CPU 0 instructions: 130000000 cycles: 364437260 heartbeat IPC: 0.231223 cumulative IPC: 0.231938 (Simulation time: 0 hr 12 min 48 sec) 
Heartbeat CPU 0 instructions: 140000001 cycles: 407530696 heartbeat IPC: 0.232054 cumulative IPC: 0.231951 (Simulation time: 0 hr 13 min 50 sec) 
Heartbeat CPU 0 instructions: 150000002 cycles: 450836742 heartbeat IPC: 0.230915 cumulative IPC: 0.231847 (Simulation time: 0 hr 14 min 50 sec) 
Heartbeat CPU 0 instructions: 160000000 cycles: 494384905 heartbeat IPC: 0.229631 cumulative IPC: 0.231643 (Simulation time: 0 hr 16 min 24 sec) 
Heartbeat CPU 0 instructions: 170000000 cycles: 537272390 heartbeat IPC: 0.233168 cumulative IPC: 0.23177 (Simulation time: 0 hr 17 min 39 sec) 
Heartbeat CPU 0 instructions: 180000000 cycles: 580405123 heartbeat IPC: 0.231842 cumulative IPC: 0.231775 (Simulation time: 0 hr 19 min 41 sec) 
Heartbeat CPU 0 instructions: 190000003 cycles: 623626424 heartbeat IPC: 0.231367 cumulative IPC: 0.231746 (Simulation time: 0 hr 21 min 12 sec) 
Heartbeat CPU 0 instructions: 200000000 cycles: 666723717 heartbeat IPC: 0.232033 cumulative IPC: 0.231765 (Simulation time: 0 hr 22 min 35 sec) 
Heartbeat CPU 0 instructions: 210000000 cycles: 709986494 heartbeat IPC: 0.231146 cumulative IPC: 0.231726 (Simulation time: 0 hr 24 min 2 sec) 
Heartbeat CPU 0 instructions: 220000000 cycles: 752922887 heartbeat IPC: 0.232903 cumulative IPC: 0.231795 (Simulation time: 0 hr 25 min 27 sec) 
Heartbeat CPU 0 instructions: 230000002 cycles: 795731986 heartbeat IPC: 0.233595 cumulative IPC: 0.231895 (Simulation time: 0 hr 26 min 50 sec) 
Heartbeat CPU 0 instructions: 240000001 cycles: 839126659 heartbeat IPC: 0.230443 cumulative IPC: 0.231818 (Simulation time: 0 hr 28 min 38 sec) 
Heartbeat CPU 0 instructions: 250000000 cycles: 882337728 heartbeat IPC: 0.231422 cumulative IPC: 0.231798 (Simulation time: 0 hr 31 min 46 sec) 
Finished CPU 0 instructions: 200000000 cycles: 862820528 cumulative IPC: 0.231798 (Simulation time: 0 hr 31 min 46 sec) 

ChampSim completed all CPUs

Region of Interest Statistics

CPU 0 cumulative IPC: 0.231798 instructions: 200000000 cycles: 862820528
ITLB TOTAL     ACCESS:   32887709  HIT:   32606500  MISS:     281209  HIT %:    99.1449  MISS %:   0.855058   MPKI: 1.40604
ITLB Test counter:          0
ITLB LOAD TRANSLATION ACCESS:   32887709  HIT:   32606500  MISS:     281209  HIT %:    99.1449  MISS %:   0.855058   MPKI: 1.40604
ITLB PREFETCH  REQUESTED:          0  ISSUED:          0  USEFUL:          0  USELESS:          0
ITLB USEFUL LOAD PREFETCHES:          0 PREFETCH ISSUED TO LOWER LEVEL:          0  ACCURACY: -nan
ITLB TIMELY PREFETCHES:          0 LATE PREFETCHES: 0 DROPPED PREFETCHES: 0
ITLB COMMIT LATE PREFETCHES: 0 MISSED OPPORTUNITY: 0 LATE IN PQ: 0 UNCOVERED: 0
ITLB COMMIT LATE MSHR PREFETCHES: 0
ITLB MPKI TOTAL: 0 MSHR LATE: 0 PQ LATE: 0 COMMIT LATE: 0 MISSED OPPORTUNITY: 0 UNCOVERED: 0
ITLB PREFETCHES SAME FILL-ORIGIN LEVEL: 0 DIFFERENT FILL-ORIGIN LEVEL: 0
ITLB AVERAGE MISS LATENCY: 9.98163 cycles
ITLB AVERAGE MISS LATENCY LOAD: -nan cycles
ITLB AVERAGE MISS LATENCY PREFETCH: -nan cycles
ITLB AVERAGE MSHR OCCUPANCY: 0.00775503
ITLB MSHR FULL: 0
ITLB RQ	ACCESS:   37002035	FORWARD:          0	MERGED:    4023183	TO_CACHE:   32978852

DTLB TOTAL     ACCESS:   76481471  HIT:   72669913  MISS:    3811558  HIT %:    95.0164  MISS %:    4.98364   MPKI: 19.0578
DTLB Test counter:          0
DTLB LOAD TRANSLATION ACCESS:   76481471  HIT:   72669913  MISS:    3811558  HIT %:    95.0164  MISS %:    4.98364   MPKI: 19.0578
DTLB PREFETCH  REQUESTED:          0  ISSUED:          0  USEFUL:          0  USELESS:          0
DTLB USEFUL LOAD PREFETCHES:          0 PREFETCH ISSUED TO LOWER LEVEL:          0  ACCURACY: -nan
DTLB TIMELY PREFETCHES:          0 LATE PREFETCHES: 0 DROPPED PREFETCHES: 0
DTLB COMMIT LATE PREFETCHES: 0 MISSED OPPORTUNITY: 0 LATE IN PQ: 0 UNCOVERED: 0
DTLB COMMIT LATE MSHR PREFETCHES: 0
DTLB MPKI TOTAL: 0 MSHR LATE: 0 PQ LATE: 0 COMMIT LATE: 0 MISSED OPPORTUNITY: 0 UNCOVERED: 0
DTLB PREFETCHES SAME FILL-ORIGIN LEVEL: 0 DIFFERENT FILL-ORIGIN LEVEL: 0
DTLB AVERAGE MISS LATENCY: 25.7094 cycles
DTLB AVERAGE MISS LATENCY LOAD: -nan cycles
DTLB AVERAGE MISS LATENCY PREFETCH: -nan cycles
DTLB AVERAGE MSHR OCCUPANCY: 0.0878335
DTLB MSHR FULL: 1.122e-05
DTLB RQ	ACCESS:   86460440	FORWARD:          0	MERGED:    9901628	TO_CACHE:   76558812

STLB TOTAL     ACCESS:    4092767  HIT:    3237394  MISS:     855373  HIT %:    79.1004  MISS %:    20.8996   MPKI: 4.27686
STLB Test counter:          0
STLB LOAD TRANSLATION ACCESS:    4092767  HIT:    3237394  MISS:     855373  HIT %:    79.1004  MISS %:    20.8996   MPKI: 4.27686
STLB PREFETCH  REQUESTED:          0  ISSUED:          0  USEFUL:          0  USELESS:          0
STLB USEFUL LOAD PREFETCHES:          0 PREFETCH ISSUED TO LOWER LEVEL:          0  ACCURACY: -nan
STLB TIMELY PREFETCHES:          0 LATE PREFETCHES: 0 DROPPED PREFETCHES: 0
STLB COMMIT LATE PREFETCHES: 0 MISSED OPPORTUNITY: 0 LATE IN PQ: 0 UNCOVERED: 0
STLB COMMIT LATE MSHR PREFETCHES: 0
STLB MPKI TOTAL: 0 MSHR LATE: 0 PQ LATE: 0 COMMIT LATE: 0 MISSED OPPORTUNITY: 0 UNCOVERED: 0
STLB PREFETCHES SAME FILL-ORIGIN LEVEL: 0 DIFFERENT FILL-ORIGIN LEVEL: 0
STLB AVERAGE MISS LATENCY: 74.6302 cycles
STLB AVERAGE MISS LATENCY LOAD: -nan cycles
STLB AVERAGE MISS LATENCY PREFETCH: -nan cycles
STLB AVERAGE MSHR OCCUPANCY: 0.0707719
STLB MSHR FULL: 0
STLB RQ	ACCESS:    4092767	FORWARD:          0	MERGED:          0	TO_CACHE:    4092767

STLB Hit, L1D data hit: 0
STLB Hit, L2C data hit: 0
STLB Hit, LLC data hit: 0
STLB Hit, LLC data miss: 0
STLB STLB hints to L2: 0
L1D TOTAL     ACCESS:   85476061  HIT:   81833850  MISS:    3642211  HIT %:    95.7389  MISS %:    4.26109   MPKI: 18.2111
L1D Test counter:          0
L1D LOAD      ACCESS:   49450308  HIT:   46299081  MISS:    3454926  HIT %:    93.6275  MISS %:    6.37251   MPKI: 15.7561
L1D RFO       ACCESS:   36025753  HIT:   35534769  MISS:     490984  HIT %:    98.6371  MISS %:    1.36287   MPKI: 2.45492
L1D PREFETCH  REQUESTED:          0  ISSUED:          0  USEFUL:          0  USELESS:          0
L1D USEFUL LOAD PREFETCHES:          0 PREFETCH ISSUED TO LOWER LEVEL:          0  ACCURACY: -nan
L1D TIMELY PREFETCHES:          0 LATE PREFETCHES: 0 DROPPED PREFETCHES: 0
L1D COMMIT LATE PREFETCHES: 0 MISSED OPPORTUNITY: 0 LATE IN PQ: 0 UNCOVERED: 0
L1D COMMIT LATE MSHR PREFETCHES: 0
L1D MPKI TOTAL: 17.2746 MSHR LATE: 0 PQ LATE: 0 COMMIT LATE: 0 MISSED OPPORTUNITY: 0 UNCOVERED: 0
L1D PREFETCHES SAME FILL-ORIGIN LEVEL: 0 DIFFERENT FILL-ORIGIN LEVEL: 0
L1D AVERAGE MISS LATENCY: 118.795 cycles
L1D AVERAGE MISS LATENCY LOAD: 122.335 cycles
L1D AVERAGE MISS LATENCY PREFETCH: -nan cycles
L1D AVERAGE MSHR OCCUPANCY: 0.276755
L1D MSHR FULL: 0
L1D RQ	ACCESS:   64236494	FORWARD:          0	MERGED:   11859460	TO_CACHE:   49754005
L1D WQ	ACCESS:   37118330	FORWARD:    2623029	MERGED:     411895	TO_CACHE:   36706435

L1D UNIQUE REGIONS ACCESSED: 0
L1D REGIONS CONFLICTS: 0
L1D Cross Page Prefetch Requests: 0
L1D Same Page Prefetch Requests: 0
L1D ROI Sum of L1D PQ occupancy: 0
L1D PREFETCHES PUSHED FROM L2C: 0
4c7067: 1
4e0583: 1
680e22: 1
41d437: 1
4c8937: 1
549774: 1
498148: 1
498162: 1
549b06: 1
4c703e: 1
4cce59: 1
549b73: 1
5555c3: 1
498169: 1
412246: 1
544bff: 1
47d471: 1
590696: 1
623f79: 1
558d53: 1
4e057c: 1
549ee8: 1
550bba: 1
4c86bf: 1
5502e6: 1
4c862b: 1
410666: 1
550280: 1
6220e6: 1
558cce: 1
511c1a: 1
4c2586: 1
59068b: 1
511a8f: 1
4ccea2: 1
558ad6: 1
4cce80: 1
620b25: 1
552c80: 1
47d4b7: 1
558d2d: 1
550d5b: 1
623f65: 1
4cce4f: 1
4c74d9: 1
4c79fa: 2
64caa6: 2
550d03: 2
41241d: 2
556e38: 2
553cac: 2
550cd8: 2
4c8516: 2
556e5c: 2
556f4d: 2
412417: 2
55b73b: 2
558a37: 2
558e48: 2
558d88: 2
41066e: 2
558e90: 2
556dfe: 2
549fb0: 2
47128d: 2
556dd4: 2
550cbd: 2
53f48a: 2
558ed3: 2
410754: 2
41077b: 2
549c8f: 3
544d49: 3
41d422: 3
63e670: 3
549afd: 3
54976a: 3
67c788: 3
471349: 3
639783: 3
549adf: 3
67c67b: 3
558d23: 3
67c76c: 3
4e0580: 3
49815f: 3
549f7c: 3
67c33b: 3
5502ec: 3
620ac1: 3
67c88c: 4
41631a: 4
549d13: 4
501cbe: 4
549c81: 4
55241b: 4
620ad3: 4
549cd5: 4
67c885: 4
54971f: 4
4c8508: 5
550083: 5
550c04: 5
411c7a: 5
550657: 5
63e661: 5
411804: 5
55b752: 5
4117fe: 5
558cf0: 5
4117f3: 5
4714bb: 5
550e48: 6
54ff9a: 6
62207f: 6
549fa0: 6
5012c3: 7
54492b: 7
622591: 7
545247: 8
544ce2: 8
6222b1: 8
55009f: 9
5504e0: 10
4714b4: 10
550fab: 10
47148a: 10
41ccb1: 10
5498b1: 10
558c3d: 11
558c2c: 11
4714a7: 11
55030c: 11
6223e0: 11
5453bb: 13
5525b8: 13
4714db: 13
550bb3: 13
620aff: 14
471483: 14
5502ef: 15
4ebada: 15
5125c3: 16
550f70: 17
4714ac: 17
550d38: 18
620ab7: 19
4e0578: 19
54eedc: 19
620b09: 19
5012bc: 20
43ad21: 20
5012f6: 20
620aa5: 20
41cc22: 20
5012ed: 20
51a66d: 20
55055b: 22
620aad: 22
4714df: 23
55023a: 23
51a684: 24
4c269a: 24
550af9: 26
621fc8: 26
55040d: 26
49bf82: 27
4ebaeb: 27
550f8e: 28
550406: 29
552758: 36
4712b7: 37
47ea73: 37
47d477: 38
41d238: 40
55063a: 40
47148e: 41
621ec1: 45
623f34: 48
4713dc: 49
4ebae4: 49
47ea6d: 50
629270: 51
62096e: 54
621fdb: 55
550629: 58
53e1b9: 59
41cc4c: 59
550005: 61
55842d: 62
558426: 69
550114: 77
621e1e: 78
41cc4f: 78
41d235: 82
620d89: 85
62257c: 87
62098c: 88
555da8: 88
623f49: 89
550010: 93
621dee: 97
620980: 99
62093b: 103
43b8f6: 104
4c2667: 110
5507d2: 125
552173: 133
41072e: 151
5525f5: 152
4106b3: 168
47d53a: 177
4c2595: 186
555f38: 190
4c26a3: 204
62201f: 206
54ff23: 206
621ffe: 212
54c958: 212
556079: 220
410781: 223
5507b5: 234
5525eb: 235
44416b: 238
47d608: 239
55833c: 244
552252: 249
550965: 255
4712c4: 257
5525ac: 265
5555ea: 266
621e95: 274
6225da: 277
550853: 281
4441d5: 308
550091: 315
4ebf7c: 316
55003d: 324
6225ab: 331
555504: 347
55100a: 369
4441ba: 369
620961: 384
622010: 388
4713b5: 393
620b35: 418
544c9b: 439
555bb1: 473
545190: 488
55218c: 492
6408a3: 510
555bbb: 559
5549c3: 583
544907: 586
55b176: 604
552130: 622
55b745: 629
55b1e5: 669
44512a: 689
55bb22: 695
5125d4: 753
4ea00b: 769
4ebaf4: 769
4712bc: 774
544edb: 777
55214d: 787
544914: 828
4713bc: 833
55b1c0: 846
5583d5: 852
545380: 882
4ea0c7: 971
55bb00: 989
47d3b5: 1008
552270: 1012
506f34: 1014
552274: 1014
552182: 1016
5524d8: 1030
54515b: 1030
54490e: 1030
411780: 1030
5524c9: 1030
5525be: 1031
4ea048: 1042
4e9fc4: 1068
43b438: 1068
624580: 1082
55b6fe: 1083
620a3f: 1119
41cc70: 1123
620b3f: 1142
47e5da: 1145
555f8f: 1150
550931: 1171
4ebfa0: 1179
43b43b: 1205
4441ae: 1205
623f20: 1225
623f09: 1240
416e91: 1256
4441c7: 1268
400640: 1283
54fff8: 1289
623f81: 1292
545370: 1304
621435: 1319
63fb0d: 1329
54ff8c: 1357
63e5fa: 1397
621e83: 1419
4713a9: 1471
550075: 1472
549390: 1506
400580: 1520
63e5f6: 1620
4441eb: 1820
47d5c0: 1909
556275: 1970
4713a4: 2020
55b7b0: 2084
444197: 2091
443ff4: 2137
50754a: 2365
41d1f7: 2425
44427d: 2610
55bb37: 2653
471411: 2696
444186: 2732
550144: 2876
411c4a: 2922
545180: 3023
4117af: 3193
416eb9: 3258
5507ee: 3262
411aac: 3347
41055f: 3354
555f7c: 3369
555f2e: 3370
555d9d: 3375
549100: 3388
5555bc: 3401
411afa: 3414
411c3e: 3442
444028: 3452
4ebf44: 3583
54c9b1: 3624
6291bb: 3638
6291b5: 3787
411c5f: 3905
411b0d: 3921
62919a: 3987
6291c1: 4044
55b6eb: 4075
416e8e: 4650
550b49: 4810
549370: 5016
55039d: 5023
445148: 5037
550ab2: 5046
555b54: 5046
550397: 5081
555b1a: 5142
4450fb: 5165
621ea4: 5242
4ebb70: 5487
621e9a: 5529
471398: 6010
4168b0: 6097
4712ab: 6220
44415f: 6628
4105d4: 6723
41053f: 6728
62241f: 8174
47d45d: 8371
47eb9a: 9288
62200b: 9335
554a73: 9524
555f5c: 9871
444216: 10878
444178: 11204
4168cb: 11801
6408a0: 12476
4168b4: 13002
41d1f4: 13098
410737: 13185
555f6d: 13241
4ebe6b: 13275
5507af: 13288
4ebf76: 13298
4ebf40: 13300
5555a4: 13446
41054e: 13549
49c1ec: 14520
433dff: 14645
412730: 15331
62094f: 16045
620a5d: 16261
55bb1e: 16849
55bb33: 18123
507571: 18180
4340f0: 18778
416e84: 19150
433def: 19365
555b34: 20305
41218b: 20305
550a73: 20425
4ea01d: 22246
444020: 23060
55b173: 23339
41191a: 24158
620aeb: 24740
41195a: 27893
622407: 28770
47136d: 29076
4712af: 29295
47d453: 33930
416eb3: 34120
416e72: 35046
416eb6: 35366
471366: 35779
621e17: 36516
41cc78: 37247
4168ba: 39534
5124e1: 41921
471394: 41952
624599: 44216
47e5d4: 47620
416ef9: 51927
41cc81: 56961
4ec000: 60083
471359: 69166
54fe9b: 69536
47135d: 70574
4ea019: 77542
550ff8: 80996
54fefc: 81022
55bb13: 87199
4e9fc1: 88537
5432c8: 89656
47133d: 213413
471351: 260634
47134d: 310702
L1I TOTAL     ACCESS:   36971536  HIT:   36892528  MISS:      79008  HIT %:    99.7863  MISS %:     0.2137   MPKI: 0.39504
L1I Test counter:          0
L1I LOAD      ACCESS:   36971536  HIT:   36892528  MISS:     109508  HIT %:    99.7863  MISS %:     0.2137   MPKI: 0.39504
L1I PREFETCH  REQUESTED:          0  ISSUED:          0  USEFUL:          0  USELESS:          0
L1I USEFUL LOAD PREFETCHES:          0 PREFETCH ISSUED TO LOWER LEVEL:          0  ACCURACY: -nan
L1I TIMELY PREFETCHES:          0 LATE PREFETCHES: 0 DROPPED PREFETCHES: 0
L1I COMMIT LATE PREFETCHES: 0 MISSED OPPORTUNITY: 0 LATE IN PQ: 0 UNCOVERED: 0
L1I COMMIT LATE MSHR PREFETCHES: 0
L1I MPKI TOTAL: 0.54754 MSHR LATE: 0 PQ LATE: 0 COMMIT LATE: 0 MISSED OPPORTUNITY: 0 UNCOVERED: 0
L1I PREFETCHES SAME FILL-ORIGIN LEVEL: 0 DIFFERENT FILL-ORIGIN LEVEL: 0
L1I AVERAGE MISS LATENCY: 26.0125 cycles
L1I AVERAGE MISS LATENCY LOAD: 26.0125 cycles
L1I AVERAGE MISS LATENCY PREFETCH: -nan cycles
L1I AVERAGE MSHR OCCUPANCY: 0.00330052
L1I MSHR FULL: 0
L1I RQ	ACCESS:   57075311	FORWARD:          0	MERGED:   20073276	TO_CACHE:   37002035

556dc0: 1
55bd10: 1
550a40: 1
552ad0: 1
4c7697: 1
55be88: 1
54cad0: 1
558c20: 1
55b280: 1
4e0570: 1
511c80: 1
558ca2: 1
4c8db1: 1
549700: 1
555804: 1
511ce1: 1
558d80: 1
4c74c0: 1
4c7a04: 1
519a46: 1
558cc1: 1
63f7f5: 1
4c7044: 1
507688: 1
4cced6: 1
445101: 1
511c10: 1
4c868c: 1
620a82: 1
54ca83: 1
552703: 1
553cc0: 1
519a30: 1
410748: 1
4c8cd0: 1
629241: 1
498140: 1
552c90: 1
550690: 1
4cd010: 1
545870: 1
55bc90: 1
621ffe: 1
552753: 1
4c8500: 1
4c8923: 1
558c41: 1
558a41: 1
549d41: 1
5504c0: 1
4c8d53: 1
550338: 1
4c8dc1: 1
67cd4f: 1
558dc0: 1
4c7020: 1
411801: 1
558a8b: 1
558ac4: 1
558b0a: 1
501cc2: 1
558b46: 1
4c86c4: 1
4117c0: 1
54975c: 1
55bd50: 1
449d70: 1
4cd041: 1
63e680: 1
558d02: 1
555a70: 1
558ec2: 1
498180: 1
554a73: 1
556067: 1
620e58: 1
544c60: 1
550c0a: 1
443f6c: 1
61d150: 1
550d44: 1
4c8703: 1
590680: 1
680e01: 1
4cce80: 1
4cce40: 1
4c7086: 1
550942: 1
4c2680: 1
4c8740: 1
4c862b: 1
519a81: 1
545242: 1
680de2: 1
622682: 1
5906e0: 1
59071d: 1
4c79c9: 1
4c7a42: 1
550002: 1
4c8d01: 1
511a50: 1
55bbe0: 1
511a84: 1
556d4b: 1
511c40: 1
558d40: 1
629200: 1
6220c0: 1
4ea360: 1
6814e2: 1
549d02: 1
5494b0: 1
67cda3: 1
67c748: 1
55bf41: 1
558e48: 1
545942: 1
553c80: 1
55bd83: 1
55bdf9: 1
67cd04: 1
556500: 1
54a71e: 1
622042: 1
545902: 1
501d8c: 1
558e89: 1
6210ef: 1
621100: 1
408910: 1
55bf64: 1
55bf30: 1
501d02: 1
55bcc1: 1
501d6e: 1
556d8f: 1
55bc01: 1
5571c1: 2
443880: 2
622620: 2
412442: 2
557002: 2
41242d: 2
556fb0: 2
549870: 2
41244b: 2
54c8c4: 2
553500: 2
556fc1: 2
544beb: 2
550341: 2
55bebd: 2
61d900: 2
555ec1: 2
67ccc1: 2
5583d5: 2
556281: 2
549c81: 2
4ea0c4: 2
5500c0: 2
54ff84: 2
620b82: 2
54ff6a: 2
5498c3: 2
68024f: 2
557041: 2
549bc2: 2
412200: 2
551001: 2
549881: 2
558456: 2
54a680: 2
555fc7: 2
67c843: 2
557190: 2
549c70: 2
55bcd0: 2
55bed0: 2
67ce80: 2
4ea0bd: 2
412400: 2
61d881: 2
61d842: 2
68021d: 2
67c681: 2
49bf82: 2
67c520: 2
61d040: 2
6170c4: 2
4c2570: 2
55bec1: 2
411ba0: 2
549cc1: 2
54efe0: 2
412241: 2
443870: 2
556e80: 2
556ec2: 2
61d146: 2
6222c1: 2
55008b: 2
556cc0: 2
556f42: 2
553340: 2
501cb0: 2
548570: 2
556f19: 2
67ca58: 2
556e40: 2
548582: 2
552c80: 2
548301: 2
61ec00: 2
552bd0: 2
68062a: 2
615826: 2
61d807: 2
67c880: 2
54c8a0: 2
4340c1: 2
67c801: 2
61cef0: 3
410543: 3
546960: 3
61ec70: 3
47e5c0: 3
680286: 3
49c0e0: 3
61d0d3: 3
6802fd: 3
556344: 3
68102b: 3
544c81: 3
55ba40: 3
43b442: 3
5507c0: 3
51a843: 3
680f80: 3
51a7f1: 3
61cf00: 3
55bc80: 3
67c310: 3
51a802: 3
41cc10: 3
549fc1: 3
551090: 3
67ceeb: 3
545947: 3
549370: 3
41d410: 3
550c4c: 3
447960: 3
67c5c0: 3
61ec81: 3
549b81: 3
67cf4e: 3
67c544: 3
47ea60: 3
545042: 3
549b03: 3
61d081: 3
67cf86: 3
6157d0: 3
55bc40: 3
550cc3: 3
617100: 3
61d7e0: 3
67c340: 3
5493c0: 3
67c661: 3
67ce6f: 3
550bc0: 3
439c05: 3
471501: 3
549ec9: 3
54ff04: 3
67cc4f: 3
545882: 3
550241: 3
680307: 3
67cc81: 3
6806af: 3
5557ef: 3
64e140: 3
5458c0: 3
681460: 3
680f1c: 3
544e62: 3
5432b0: 3
680f68: 3
67c7c7: 3
54a500: 3
6220ef: 3
552686: 3
411482: 3
63eef0: 3
617080: 3
550201: 3
549a83: 3
411460: 3
549a7b: 3
549ace: 3
54cb10: 3
549b40: 3
55bf00: 3
63ef00: 3
41d441: 3
61d108: 3
55c020: 3
67c280: 3
550ac4: 3
54eec1: 4
54cae0: 4
544ec4: 4
545341: 4
55233a: 4
5592d2: 4
5463e0: 4
4113c4: 4
51a680: 4
546502: 4
4123c0: 4
550505: 4
47e640: 4
549f70: 4
546b30: 4
54a650: 4
544fc0: 4
5592a0: 4
550c80: 4
550ecd: 4
549f00: 4
55c0cc: 4
556302: 4
555f40: 4
622083: 4
549f83: 4
55bb41: 4
55c010: 4
558342: 5
416300: 5
546b50: 5
5453c6: 5
621183: 5
4ec000: 5
546ad0: 5
559340: 5
63e640: 5
621175: 5
559300: 5
546b90: 5
416f03: 5
63f5c0: 5
558320: 5
55bac3: 5
620b35: 6
49bfab: 6
545080: 6
54531d: 6
55bf60: 6
4ebb8b: 6
550e40: 7
552603: 7
546607: 7
55bf83: 7
551144: 7
622641: 7
4ea002: 7
55010d: 7
553440: 7
550b40: 7
63faf0: 7
554ab7: 7
55beb5: 7
6223dc: 7
47ea80: 8
49bf40: 8
550eb0: 8
54eeb0: 8
5505f1: 9
5505ce: 9
55be45: 9
433f40: 9
51a630: 9
555b45: 9
412640: 9
550608: 9
410641: 10
55bad3: 10
55baa0: 10
550b86: 10
555b80: 10
6292d0: 10
4ebf40: 11
5465c0: 11
507650: 11
4c2660: 11
4e0580: 11
641120: 11
545283: 11
55b187: 12
552282: 12
680599: 13
549100: 13
554a84: 13
67c585: 13
5502c1: 13
5522cd: 14
620ae0: 14
559488: 14
5012c3: 14
49c100: 14
4ebf82: 14
54510b: 15
55bba0: 15
544f9e: 15
55bb46: 15
5465b0: 15
545000: 15
434103: 15
546401: 15
544f08: 15
555f83: 15
501300: 15
546640: 15
549490: 16
41d490: 16
629304: 16
6225c0: 17
63f5b0: 17
62228f: 18
550542: 18
471481: 18
47eac0: 18
54ab40: 18
629282: 18
550f40: 19
55044a: 19
550280: 19
5504bd: 19
544b81: 19
550f84: 19
54aa80: 19
54ef00: 19
62257c: 19
544b74: 19
550f03: 19
51a641: 20
555a84: 20
550583: 20
550a80: 20
550400: 20
64e1d0: 20
501280: 20
443f82: 21
555540: 21
4ebb63: 21
623f00: 21
412110: 22
5555c3: 22
552470: 23
5525c4: 23
621f84: 26
621f42: 26
550591: 28
552120: 28
55067b: 30
621440: 38
55b1c0: 38
550027: 39
559440: 39
622190: 40
55564d: 42
43b430: 46
543401: 46
64e1e0: 46
53f480: 59
545190: 63
5511ce: 81
548440: 114
622581: 120
47d480: 129
4441a6: 153
49c1c2: 158
62241f: 175
64cac3: 210
411ac2: 213
64cb03: 290
411b01: 292
5524a0: 346
558441: 347
552440: 348
444180: 360
552482: 368
54547e: 370
555f06: 388
443f00: 438
629184: 463
412180: 511
47d430: 542
550b25: 646
555b04: 651
5521c1: 660
622407: 676
55bb00: 676
4ebb04: 685
545180: 698
552411: 707
552598: 725
552182: 739
555400: 740
5451c1: 750
554ac0: 766
555afa: 767
552142: 770
55214a: 775
556495: 778
621435: 781
544acf: 792
4ebac0: 793
545481: 812
555f27: 815
55548c: 818
6291c1: 837
629170: 840
558405: 861
5501c2: 882
5555a4: 885
545140: 900
64e150: 904
444004: 913
4441c1: 935
621f26: 981
55115d: 988
507581: 1020
49c1b0: 1064
53f5b0: 1066
506f20: 1132
445142: 1140
55b160: 1174
4ebf30: 1174
550191: 1179
433f36: 1180
548420: 1195
556420: 1235
556027: 1418
549030: 1418
54f002: 1420
622002: 1423
47e5a0: 1674
445148: 2128
47d596: 2291
64e160: 2320
624580: 2395
444140: 2489
410598: 2752
4c2586: 2780
400580: 2788
550140: 2948
BTB TOTAL     ACCESS:   32188164  HIT:   30296058  MISS:    1892106  HIT %:    94.1217  MISS %:    5.87827   MPKI: 9.46053
BTB Test counter:          0
BTB BRANCH_DIRECT_JUMP	ACCESS:    2276304  HIT:    2276179  MISS:        125
BTB BRANCH_INDIRECT	ACCESS:     671328  HIT:     585871  MISS:      85457
BTB BRANCH_CONDITIONAL	ACCESS:   17350102  HIT:   17349618  MISS:        484
BTB BRANCH_DIRECT_CALL	ACCESS:    3559126  HIT:    3558870  MISS:        256
BTB BRANCH_INDIRECT_CALL	ACCESS:    2386088  HIT:    2378106  MISS:       7982
BTB BRANCH_RETURN	ACCESS:    5945216  HIT:    4147414  MISS:    1797802
BTB BRANCH_OTHER ACCESS:          0  HIT:          0  MISS:          0

L2C TOTAL     ACCESS:    6734348  HIT:    3734530  MISS:    2999818  HIT %:     55.455  MISS %:     44.545   MPKI: 14.9991
L2C Test counter:          0
L2C LOAD      ACCESS:    3230188  HIT:    1028940  MISS:    2201248  HIT %:    31.8539  MISS %:    68.1461   MPKI: 11.0062
L2C DATA LOAD MPKI: 10.942
L2C INSTRUCTION LOAD MPKI: 0.06424
L2C RFO       ACCESS:     490980  HIT:     146190  MISS:     344790  HIT %:    29.7751  MISS %:    70.2249   MPKI: 1.72395
L2C WRITEBACK ACCESS:    1803493  HIT:    1800841  MISS:       2652  HIT %:     99.853  MISS %:   0.147048   MPKI: 0.01326
L2C LOAD TRANSLATION ACCESS:    1209687  HIT:     758559  MISS:     451128  HIT %:     62.707  MISS %:     37.293   MPKI: 2.25564
L2C PREFETCH  REQUESTED:          0  ISSUED:          0  USEFUL:          0  USELESS:          0
L2C USEFUL LOAD PREFETCHES:          0 PREFETCH ISSUED TO LOWER LEVEL:          0  ACCURACY: -nan
L2C TIMELY PREFETCHES:          0 LATE PREFETCHES: 0 DROPPED PREFETCHES: 0
L2C COMMIT LATE PREFETCHES: 0 MISSED OPPORTUNITY: 0 LATE IN PQ: 0 UNCOVERED: 0
L2C COMMIT LATE MSHR PREFETCHES: 0
L2C MPKI TOTAL: 11.0062 MSHR LATE: 0 PQ LATE: 0 COMMIT LATE: 0 MISSED OPPORTUNITY: 0 UNCOVERED: 0
L2C PREFETCHES SAME FILL-ORIGIN LEVEL: 0 DIFFERENT FILL-ORIGIN LEVEL: 0
L2C AVERAGE MISS LATENCY: 138.71 cycles
L2C AVERAGE MISS LATENCY LOAD: 153.999 cycles
L2C AVERAGE MISS LATENCY PREFETCH: -nan cycles
L2C AVERAGE MSHR OCCUPANCY: 0.370417
L2C MSHR FULL: 0
L2C RQ	ACCESS:    4930906	FORWARD:          0	MERGED:          0	TO_CACHE:    4930855
L2C WQ	ACCESS:    1803493	FORWARD:         51	MERGED:          0	TO_CACHE:    1803493

L2C Instructions Evicting Data 10388
L2C Translations Evicting Data 380118
L2C Data Evicting Data 2143078
L2C Instructions Evicting Instructions 1103
L2C Translations Evicting Instructions 1424
L2C Data Evicting Instructions 10346
L2C Instructions Evicting Translations 1357
L2C Translations Evicting Translations 69586
L2C Data Evicting Translations 379766
L2C Dense regions hint from L2: 0
511c80: 1
4c8d53: 1
4c7044: 1
501d8c: 1
507688: 1
511a50: 1
511c10: 1
55bc01: 1
511c1a: 1
622042: 1
511a8f: 1
4c7086: 1
558a8b: 1
4c7067: 1
549b73: 1
4c7020: 1
550002: 1
5504c0: 1
519a30: 1
519a46: 1
555804: 1
4c8dc1: 1
4c8740: 1
519a81: 1
59068b: 1
558e89: 1
558d02: 1
54975c: 1
4c8703: 1
590696: 1
59071d: 1
4c8923: 1
4c79c9: 1
4c8d01: 1
550338: 1
411801: 1
55bd50: 1
511c40: 1
54cad0: 1
41d437: 1
54a71e: 1
550690: 1
555a70: 1
629241: 1
47ea6d: 1
556067: 1
620e58: 1
550a40: 1
544c60: 1
4c7a04: 1
6814e2: 1
4ccea2: 1
558ca2: 1
549700: 1
4e057c: 1
558b46: 1
558ad6: 1
55bf30: 1
558b0a: 1
558ac4: 1
55bf41: 1
63e680: 1
558c41: 1
558d40: 1
558d2d: 1
511ce1: 1
498162: 1
680de2: 1
47ea73: 1
552703: 1
449d70: 1
410748: 1
55bbe0: 1
550c0a: 1
545242: 1
558d53: 1
4e0570: 1
4c8cd0: 1
501d02: 1
511a84: 1
558ec2: 1
498140: 1
680e01: 1
55bf64: 1
5906e0: 1
4c8500: 1
4c7a42: 1
4cd010: 1
4117c0: 1
55b280: 1
552c90: 1
552753: 1
55023a: 1
4cce4f: 1
55bc90: 1
549774: 1
4c8db1: 1
5494b0: 1
4cd041: 1
4c2680: 1
498180: 1
552ad0: 1
558cc1: 1
4e0583: 1
4c74c0: 1
4cced6: 1
498148: 1
558cce: 1
549d02: 1
4c86c4: 1
445101: 1
4c703e: 1
4c74d9: 1
4c86bf: 1
558dc0: 1
4cce40: 1
590680: 1
443f6c: 1
4c868c: 1
550bba: 1
4cce59: 1
558d80: 1
620b25: 1
550d44: 1
4c7697: 1
61d150: 1
545870: 1
680e22: 1
501d6e: 1
558c20: 1
47148e: 1
5502ef: 1
63f7f5: 1
556d8f: 1
621ffe: 1
549d41: 1
6220e6: 1
553cc0: 1
545942: 1
6220c0: 1
4c8937: 1
549c8f: 1
408910: 1
549ee8: 1
47d4b7: 1
556d4b: 1
556500: 1
558456: 1
556dc0: 1
550083: 1
55be88: 1
558a41: 1
55bdf9: 1
550e48: 1
501cc2: 1
555504: 1
55bd83: 1
4ea360: 1
6210ef: 1
620a82: 1
4c26a3: 1
498169: 1
622682: 1
545902: 1
54ca83: 1
67cda3: 1
550af9: 1
67cd4f: 1
67cd04: 1
623f65: 1
552173: 1
553c80: 1
55bcc1: 1
54492b: 1
550942: 1
629200: 1
47d471: 1
67c748: 1
621100: 1
55bd10: 1
61d146: 2
4c79fa: 2
54a680: 2
412442: 2
548582: 2
501cb0: 2
556dd4: 2
412417: 2
555ec1: 2
41241d: 2
555fc7: 2
55bed0: 2
67c801: 2
6170c4: 2
67c520: 2
4c8516: 2
412200: 2
556cc0: 2
67ce80: 2
61d040: 2
67c681: 2
61d842: 2
556f4d: 2
67c843: 2
54efe0: 2
67c880: 2
68024f: 2
68062a: 2
4340c1: 2
61d807: 2
553500: 2
55030c: 2
443870: 2
55bec1: 2
4ea0c4: 2
41066e: 2
553340: 2
556dfe: 2
61ec00: 2
67ca58: 2
61d900: 2
550341: 2
556e38: 2
552bd0: 2
556e80: 2
556ec2: 2
4cce80: 2
67ccc1: 2
544beb: 2
5500c0: 2
558ed3: 2
412241: 2
556e5c: 2
410754: 2
443880: 2
549fb0: 2
5498c3: 2
41077b: 2
412400: 2
548301: 2
55bcd0: 2
64caa6: 2
556fc1: 2
411ba0: 2
549c70: 2
615826: 2
551001: 2
556f19: 2
55008b: 2
6222c1: 2
68021d: 2
41242d: 2
4ea0bd: 2
61d881: 2
557190: 2
54ff84: 2
54c8c4: 2
556f42: 2
622620: 2
553cac: 2
53f48a: 2
549870: 2
55b73b: 2
4c862b: 2
47128d: 2
550cbd: 2
4714bb: 2
549cc1: 2
556fb0: 2
54c8a0: 2
5571c1: 2
548570: 2
556281: 2
47148a: 2
558e90: 2
558a37: 2
556e40: 2
557002: 2
549bc2: 2
41244b: 2
4c2570: 2
558d88: 2
620b82: 2
55bebd: 2
549881: 2
557041: 2
54ff6a: 2
61d0d3: 3
47e5c0: 3
551090: 3
639783: 3
550f70: 3
67c76c: 3
67ce6f: 3
61d081: 3
67c5c0: 3
558e48: 3
54a500: 3
67c885: 3
51a7f1: 3
67c544: 3
67c310: 3
545882: 3
67c788: 3
617080: 3
617100: 3
549b81: 3
550ac4: 3
41d410: 3
680f68: 3
5507c0: 3
680599: 3
549ace: 3
67c585: 3
471501: 3
51a843: 3
43b442: 3
549b40: 3
55bf00: 3
549adf: 3
67cc4f: 3
6157d0: 3
61d7e0: 3
61ec81: 3
550cc3: 3
61ec70: 3
556344: 3
54976a: 3
620ac1: 3
41d422: 3
549b03: 3
54cb10: 3
5502ec: 3
55bc80: 3
549a83: 3
67c340: 3
411482: 3
549a7b: 3
63ef00: 3
55c020: 3
549afd: 3
4714df: 3
6220ef: 3
67c7c7: 3
550c4c: 3
55ba40: 3
411460: 3
41cc10: 3
550241: 3
550201: 3
67c67b: 3
47ea60: 3
550bc0: 3
680307: 3
545042: 3
439c05: 3
558d23: 3
55241b: 3
545947: 3
5493c0: 3
55bc40: 3
4714b4: 3
67c88c: 3
63eef0: 3
410543: 3
544e62: 3
5432b0: 3
54ff04: 3
41d441: 3
49c0e0: 3
61cf00: 3
51a802: 3
552c80: 3
67ceeb: 3
544c81: 3
54ff9a: 3
6802fd: 3
49815f: 3
552686: 3
67c661: 3
4714a7: 3
61cef0: 3
67cc81: 3
5557ef: 3
680286: 3
67cf4e: 3
67cf86: 3
6806af: 3
680f1c: 3
63e670: 3
680f80: 3
546960: 3
549ec9: 3
68102b: 3
67c280: 3
447960: 3
61d108: 3
67c33b: 3
681460: 3
549fc1: 3
5458c0: 3
549f7c: 3
4e0580: 4
546b30: 4
622591: 4
620ad3: 4
555f40: 4
544fc0: 4
5463e0: 4
4714ac: 4
545341: 4
55233a: 4
410781: 4
55c010: 4
4123c0: 4
5592d2: 4
556302: 4
549cd5: 4
622083: 4
4113c4: 4
550ecd: 4
55bb41: 4
550c80: 4
54eec1: 4
550505: 4
51a680: 4
549f70: 4
54a650: 4
549d13: 4
544ec4: 4
549f00: 4
546502: 4
55c0cc: 4
549f83: 4
5592a0: 4
47e640: 4
54cae0: 4
54971f: 4
501cbe: 4
558cf0: 5
6222b1: 5
55b752: 5
63f5b0: 5
63f5c0: 5
550f8e: 5
546b50: 5
63e640: 5
621183: 5
63e661: 5
546b90: 5
416f03: 5
4ebb8b: 5
55bac3: 5
546ad0: 5
64e150: 5
411c7a: 5
4117f3: 5
559300: 5
411804: 5
416300: 5
559340: 5
558320: 5
621175: 5
5453c6: 5
558342: 5
4c8508: 5
558426: 5
54531d: 6
49bfab: 6
63faf0: 6
445142: 6
44416b: 6
550d38: 6
6223e0: 6
545080: 6
549c81: 6
622641: 6
549fa0: 6
62207f: 6
55bf60: 6
5505f1: 7
4ea002: 7
550b40: 7
55beb5: 7
554ab7: 7
546607: 7
552603: 7
55010d: 7
553440: 7
550e40: 7
55bf83: 7
6223dc: 7
433f40: 8
47ea80: 8
5505ce: 8
49bf40: 8
550eb0: 8
54eeb0: 8
545247: 8
64e1d0: 9
55be45: 9
620b3f: 9
550608: 9
4ebfa0: 9
555b45: 9
550bb3: 9
549390: 9
51a630: 9
550b86: 9
412640: 9
6292d0: 10
410641: 10
620b35: 10
5498b1: 10
4c269a: 10
4c2660: 10
507650: 10
55baa0: 10
55833c: 10
55bad3: 10
555b80: 10
545283: 11
5465c0: 11
558c2c: 11
641120: 11
558c3d: 11
552282: 12
552130: 12
554a84: 12
552470: 12
55b187: 12
5453bb: 13
559488: 13
620aff: 13
5502c1: 13
55bb46: 13
5522cd: 14
5012c3: 14
41d490: 14
4c2586: 14
49c100: 14
620ae0: 14
4ebf82: 14
434103: 14
5465b0: 15
620b09: 15
544f9e: 15
55bba0: 15
544f08: 15
621e95: 15
546640: 15
555f83: 15
545000: 15
501300: 15
54510b: 15
546401: 15
550542: 16
550005: 16
629304: 16
549490: 16
471481: 16
550a80: 17
47eac0: 17
6225c0: 17
550f40: 17
550f84: 17
54ab40: 17
550280: 17
5504bd: 17
550591: 17
544b74: 17
501280: 18
629282: 18
54ef00: 18
54aa80: 18
54eedc: 18
555540: 18
550400: 18
550f03: 18
5012f6: 18
62228f: 18
620ab7: 18
4ebb63: 18
5012ed: 18
41cc22: 18
544b81: 18
51a66d: 19
43ad21: 19
622010: 19
55b745: 19
51a641: 19
555a84: 19
5012bc: 19
4ebaf4: 19
55044a: 19
4e0578: 19
49bf82: 19
5507b5: 19
550010: 20
412110: 20
623f00: 20
620aa5: 20
5555c3: 20
5525c4: 21
443f82: 21
4712c4: 21
620aad: 21
51a684: 23
55067b: 24
54ff8c: 24
621fc8: 24
55842d: 24
622581: 25
621f42: 25
621f84: 25
4712b7: 26
622190: 26
552120: 26
621e83: 26
444186: 26
555da8: 27
47d477: 27
555f06: 27
4ebaeb: 27
550114: 28
64e1e0: 28
4ebf7c: 29
47d5c0: 30
64e160: 32
550027: 34
47d596: 34
55564d: 34
621440: 35
621ec1: 35
400640: 36
621fdb: 36
400580: 36
410598: 37
559440: 37
550075: 37
555f8f: 37
629270: 38
5525ac: 38
623f34: 41
43b430: 41
543401: 43
62096e: 43
556420: 44
544c9b: 46
55214d: 46
55b7b0: 48
4ebae4: 49
47d53a: 50
53f480: 50
623f20: 51
54fff8: 51
549030: 52
41072e: 53
5507d2: 54
41cc4c: 54
5525f5: 55
63fb0d: 56
621e1e: 56
53e1b9: 57
556027: 58
416e91: 58
622002: 59
620980: 59
54f002: 59
55b6fe: 59
444004: 61
552482: 62
556079: 64
4e9fc4: 64
41cc4f: 65
620d89: 66
5511ce: 66
620a3f: 67
47e5da: 68
62201f: 68
621dee: 69
62093b: 69
4441a6: 69
545481: 69
43b43b: 70
4712bc: 71
548420: 71
620961: 71
54c958: 71
555f27: 72
550853: 72
550144: 73
544907: 74
550091: 75
43b438: 75
43b8f6: 80
621f26: 81
62257c: 81
63e5fa: 81
4ebac0: 82
4c2667: 83
555f38: 86
4ea048: 87
5524a0: 87
623f09: 91
4ea0c7: 92
506f34: 92
433f36: 94
4ebf30: 94
548440: 95
47d480: 95
552142: 98
47d608: 98
55115d: 98
506f20: 101
624580: 101
545140: 102
556495: 106
552598: 108
47e5a0: 108
4713b5: 109
444197: 110
49c1b0: 111
5549c3: 113
44415f: 119
552411: 120
53f5b0: 126
411ac2: 129
55003d: 129
47d3b5: 129
49c1c2: 130
555b04: 137
550191: 138
64cac3: 139
444140: 140
544914: 141
555400: 142
41cc70: 142
555afa: 144
55548c: 146
55b176: 147
558405: 150
411b01: 151
443f00: 155
55214a: 155
55b1c0: 156
64cb03: 156
54ff23: 160
54547e: 161
444178: 161
621435: 163
555bb1: 164
412180: 174
558441: 179
55b1e5: 179
4441eb: 183
5451c1: 184
444180: 184
552440: 185
55100a: 187
444216: 195
4ebb04: 199
507581: 204
47d430: 205
550140: 209
55b6eb: 212
550b25: 214
6225ab: 219
416eb9: 227
5525eb: 234
556275: 236
50754a: 239
4117af: 246
554ac0: 246
552252: 247
41d1f7: 247
544acf: 247
63e5f6: 249
4441c1: 250
550965: 255
4441d5: 256
4713bc: 263
5521c1: 263
629184: 265
5501c2: 270
6225da: 273
4441ba: 315
55b160: 328
444028: 365
629170: 366
62919a: 413
4713a9: 415
55218c: 491
545190: 500
6408a3: 509
555bbb: 559
5125d4: 631
44512a: 678
55bb22: 687
4713a4: 711
4ea00b: 769
544edb: 777
471411: 778
443ff4: 783
5583d5: 832
545380: 881
4441ae: 978
552274: 982
552270: 1010
5525be: 1026
54515b: 1028
5524d8: 1028
411780: 1030
5524c9: 1030
54490e: 1030
623f81: 1037
4441c7: 1037
4712ab: 1076
550931: 1171
55bb00: 1189
552182: 1265
545370: 1298
471398: 1504
5555bc: 1645
5507ee: 1772
555d9d: 1810
411aac: 2364
411afa: 2371
62241f: 2389
549100: 2396
41055f: 2433
411c4a: 2516
44427d: 2569
55bb37: 2605
54c9b1: 2642
6291b5: 2826
55039d: 2864
550397: 3021
545180: 3145
411b0d: 3148
555f7c: 3355
411c3e: 3359
555f2e: 3363
411c5f: 3547
4ebf44: 3570
6291bb: 3612
6291c1: 4289
621e9a: 4468
416e8e: 4607
4105d4: 4784
550b49: 4805
41053f: 4930
445148: 5005
549370: 5017
4450fb: 5021
550ab2: 5046
555b54: 5046
555b1a: 5141
621ea4: 5163
47eb9a: 5391
4ebb70: 5466
4168b0: 6029
62200b: 7004
4ebe6b: 7062
47d45d: 7321
4712af: 8043
5555a4: 8205
6408a0: 8373
47136d: 9269
5507af: 9455
554a73: 9525
41d1f4: 9526
471366: 9645
555f5c: 9844
41054e: 9900
621e17: 10318
507571: 10687
49c1ec: 10875
4168cb: 11451
412730: 11888
4168b4: 12937
410737: 13136
555f6d: 13238
4ebf40: 13275
4ebf76: 13290
41191a: 13502
433dff: 14562
62094f: 15935
620a5d: 16161
55bb1e: 16755
55bb33: 18044
4340f0: 18683
416e84: 19019
433def: 19199
41218b: 20300
555b34: 20303
550a73: 20308
55b173: 20336
416eb6: 20427
4ea01d: 22240
444020: 22263
620aeb: 24676
622407: 25168
471394: 25578
41195a: 27420
471359: 27529
47135d: 27626
41cc78: 27877
4168ba: 30382
5124e1: 30960
47d453: 32710
416eb3: 33614
416e72: 34752
47e5d4: 37667
41cc81: 40440
624599: 43964
4ec000: 46728
54fe9b: 49818
416ef9: 51648
54fefc: 58896
550ff8: 58969
4ea019: 77526
55bb13: 86731
4e9fc1: 88506
5432c8: 89643
47133d: 96182
471351: 135873
47134d: 162550
PSCL5 TOTAL     ACCESS:     855373  HIT:     855373  MISS:          0  HIT %:        100  MISS %:          0   MPKI: 0
PSCL5 Test counter:          0
PSCL5 LOAD TRANSLATION ACCESS:     855373  HIT:     855373  MISS:          0  HIT %:        100  MISS %:          0   MPKI: 0
PSCL5 PREFETCH  REQUESTED:          0  ISSUED:          0  USEFUL:          0  USELESS:          0
PSCL5 USEFUL LOAD PREFETCHES:          0 PREFETCH ISSUED TO LOWER LEVEL:          0  ACCURACY: -nan
PSCL5 TIMELY PREFETCHES:          0 LATE PREFETCHES: 0 DROPPED PREFETCHES: 0
PSCL5 COMMIT LATE PREFETCHES: 0 MISSED OPPORTUNITY: 0 LATE IN PQ: 0 UNCOVERED: 0
PSCL5 COMMIT LATE MSHR PREFETCHES: 0
PSCL5 MPKI TOTAL: 0 MSHR LATE: 0 PQ LATE: 0 COMMIT LATE: 0 MISSED OPPORTUNITY: 0 UNCOVERED: 0
PSCL5 PREFETCHES SAME FILL-ORIGIN LEVEL: 0 DIFFERENT FILL-ORIGIN LEVEL: 0

PSCL4 TOTAL     ACCESS:     855373  HIT:     855373  MISS:          0  HIT %:        100  MISS %:          0   MPKI: 0
PSCL4 Test counter:          0
PSCL4 LOAD TRANSLATION ACCESS:     855373  HIT:     855373  MISS:          0  HIT %:        100  MISS %:          0   MPKI: 0
PSCL4 PREFETCH  REQUESTED:          0  ISSUED:          0  USEFUL:          0  USELESS:          0
PSCL4 USEFUL LOAD PREFETCHES:          0 PREFETCH ISSUED TO LOWER LEVEL:          0  ACCURACY: -nan
PSCL4 TIMELY PREFETCHES:          0 LATE PREFETCHES: 0 DROPPED PREFETCHES: 0
PSCL4 COMMIT LATE PREFETCHES: 0 MISSED OPPORTUNITY: 0 LATE IN PQ: 0 UNCOVERED: 0
PSCL4 COMMIT LATE MSHR PREFETCHES: 0
PSCL4 MPKI TOTAL: 0 MSHR LATE: 0 PQ LATE: 0 COMMIT LATE: 0 MISSED OPPORTUNITY: 0 UNCOVERED: 0
PSCL4 PREFETCHES SAME FILL-ORIGIN LEVEL: 0 DIFFERENT FILL-ORIGIN LEVEL: 0

PSCL3 TOTAL     ACCESS:     855373  HIT:     855373  MISS:          0  HIT %:        100  MISS %:          0   MPKI: 0
PSCL3 Test counter:          0
PSCL3 LOAD TRANSLATION ACCESS:     855373  HIT:     855373  MISS:          0  HIT %:        100  MISS %:          0   MPKI: 0
PSCL3 PREFETCH  REQUESTED:          0  ISSUED:          0  USEFUL:          0  USELESS:          0
PSCL3 USEFUL LOAD PREFETCHES:          0 PREFETCH ISSUED TO LOWER LEVEL:          0  ACCURACY: -nan
PSCL3 TIMELY PREFETCHES:          0 LATE PREFETCHES: 0 DROPPED PREFETCHES: 0
PSCL3 COMMIT LATE PREFETCHES: 0 MISSED OPPORTUNITY: 0 LATE IN PQ: 0 UNCOVERED: 0
PSCL3 COMMIT LATE MSHR PREFETCHES: 0
PSCL3 MPKI TOTAL: 0 MSHR LATE: 0 PQ LATE: 0 COMMIT LATE: 0 MISSED OPPORTUNITY: 0 UNCOVERED: 0
PSCL3 PREFETCHES SAME FILL-ORIGIN LEVEL: 0 DIFFERENT FILL-ORIGIN LEVEL: 0

PSCL2 TOTAL     ACCESS:     855373  HIT:     501059  MISS:     354314  HIT %:    58.5778  MISS %:    41.4222   MPKI: 1.77157
PSCL2 Test counter:          0
PSCL2 LOAD TRANSLATION ACCESS:     855373  HIT:     501059  MISS:     354314  HIT %:    58.5778  MISS %:    41.4222   MPKI: 1.77157
PSCL2 PREFETCH  REQUESTED:          0  ISSUED:          0  USEFUL:          0  USELESS:          0
PSCL2 USEFUL LOAD PREFETCHES:          0 PREFETCH ISSUED TO LOWER LEVEL:          0  ACCURACY: -nan
PSCL2 TIMELY PREFETCHES:          0 LATE PREFETCHES: 0 DROPPED PREFETCHES: 0
PSCL2 COMMIT LATE PREFETCHES: 0 MISSED OPPORTUNITY: 0 LATE IN PQ: 0 UNCOVERED: 0
PSCL2 COMMIT LATE MSHR PREFETCHES: 0
PSCL2 MPKI TOTAL: 0 MSHR LATE: 0 PQ LATE: 0 COMMIT LATE: 0 MISSED OPPORTUNITY: 0 UNCOVERED: 0
PSCL2 PREFETCHES SAME FILL-ORIGIN LEVEL: 0 DIFFERENT FILL-ORIGIN LEVEL: 0

LLC TOTAL     ACCESS:    4265969  HIT:    2281272  MISS:    1984697  HIT %:    53.4761  MISS %:    46.5239   MPKI: 9.92348
LLC Test counter:          0
LLC LOAD      ACCESS:    2201245  HIT:     532592  MISS:    1668653  HIT %:     24.195  MISS %:     75.805   MPKI: 8.34327
LLC RFO       ACCESS:     344789  HIT:     170705  MISS:     174084  HIT %:      49.51  MISS %:      50.49   MPKI: 0.87042
LLC WRITEBACK ACCESS:    1268807  HIT:    1264747  MISS:       4060  HIT %:      99.68  MISS %:   0.319986   MPKI: 0.0203
LLC LOAD TRANSLATION ACCESS:     451128  HIT:     313228  MISS:     137900  HIT %:    69.4322  MISS %:    30.5678   MPKI: 0.6895
LLC PREFETCH  REQUESTED:          0  ISSUED:          0  USEFUL:          0  USELESS:          0
LLC USEFUL LOAD PREFETCHES:          0 PREFETCH ISSUED TO LOWER LEVEL:          0  ACCURACY: -nan
LLC TIMELY PREFETCHES:          0 LATE PREFETCHES: 0 DROPPED PREFETCHES: 0
LLC COMMIT LATE PREFETCHES: 0 MISSED OPPORTUNITY: 0 LATE IN PQ: 0 UNCOVERED: 0
LLC COMMIT LATE MSHR PREFETCHES: 0
LLC MPKI TOTAL: 8.34327 MSHR LATE: 0 PQ LATE: 0 COMMIT LATE: 0 MISSED OPPORTUNITY: 0 UNCOVERED: 0
LLC PREFETCHES SAME FILL-ORIGIN LEVEL: 0 DIFFERENT FILL-ORIGIN LEVEL: 0
LLC AVERAGE MISS LATENCY: 164.346 cycles
LLC AVERAGE MISS LATENCY LOAD: 163.572 cycles
LLC AVERAGE MISS LATENCY PREFETCH: -nan cycles
LLC AVERAGE MSHR OCCUPANCY: 0.361503
LLC MSHR FULL: 0
LLC RQ	ACCESS:    2997166	FORWARD:          0	MERGED:          0	TO_CACHE:    2997162
LLC WQ	ACCESS:    1268807	FORWARD:          4	MERGED:          0	TO_CACHE:    1268807

LLC Dense regions hint to LLC: 0
59068b: 1
4c7044: 1
4c8dc1: 1
4c8d53: 1
622042: 1
4c8d01: 1
6814e2: 1
4c79c9: 1
4c8923: 1
59071d: 1
590696: 1
4c8703: 1
5504c0: 1
558e89: 1
507688: 1
519a81: 1
4c8740: 1
555804: 1
519a46: 1
519a30: 1
4ccea2: 1
4cce40: 1
590680: 1
558dc0: 1
4c86bf: 1
4c74c0: 1
4c703e: 1
558d40: 1
6210ef: 1
549fb0: 1
558b0a: 1
550005: 1
4e0583: 1
558ac4: 1
55bf41: 1
680e22: 1
63e680: 1
550114: 1
4714bb: 1
558d53: 1
445101: 1
558d2d: 1
498162: 1
558d02: 1
4c7020: 1
549b73: 1
4c7067: 1
4c7086: 1
511a8f: 1
511c80: 1
511c10: 1
63f7f5: 1
511a50: 1
550d44: 1
449d70: 1
4c86c4: 1
545242: 1
629241: 1
680de2: 1
4cd010: 1
412400: 1
558d80: 1
545870: 1
549774: 1
4c8db1: 1
4c868c: 1
511ce1: 1
4c7697: 1
558c20: 1
61d150: 1
4cd041: 1
4c8500: 1
552753: 1
4c2680: 1
55bc90: 1
501d8c: 1
4cced6: 1
553cac: 1
549d02: 1
550c0a: 1
498180: 1
5906e0: 1
410748: 1
552c90: 1
555f38: 1
558a8b: 1
511a84: 1
558c41: 1
4c8cd0: 1
4c7a42: 1
558cce: 1
54975c: 1
443f6c: 1
4cce4f: 1
4cce59: 1
498140: 1
680e01: 1
54a71e: 1
558ec2: 1
501d02: 1
558cc1: 1
55b280: 1
511c40: 1
498148: 1
55bbe0: 1
550083: 1
511c1a: 1
545902: 1
4ea360: 1
55214a: 1
623f65: 1
620a82: 1
498169: 1
54ca83: 1
55bd83: 1
552ad0: 1
552703: 1
55bdf9: 1
545942: 1
4c8937: 1
4e0570: 1
67cda3: 1
67cd4f: 1
67cd04: 1
47d4b7: 1
5494b0: 1
55bf30: 1
4c7a04: 1
67c748: 1
629184: 1
6220c0: 1
4714a7: 1
620961: 1
622682: 1
4117c0: 1
555da8: 1
550942: 1
47d471: 1
550091: 1
55bf64: 1
4441a6: 1
6220e6: 1
55bd10: 1
408910: 1
410754: 1
558e90: 1
558a41: 1
553cc0: 1
553c80: 1
41241d: 1
55bc01: 1
629200: 1
621ffe: 1
556500: 1
549d41: 1
550338: 1
555a70: 1
501cc2: 1
550690: 1
4c74d9: 1
556dc0: 1
556d8f: 1
556d4b: 1
41d437: 1
549ee8: 1
55be88: 1
544c60: 1
54cad0: 1
54a680: 1
55bd50: 1
411801: 1
558ca2: 1
549700: 1
4e057c: 1
55bcc1: 1
558b46: 1
558ad6: 1
621100: 1
556067: 1
620e58: 1
550a40: 1
501d6e: 1
556fb0: 2
54c8a0: 2
5571c1: 2
557002: 2
553340: 2
67ca58: 2
61d807: 2
4712b7: 2
549bc2: 2
556f42: 2
558d88: 2
556fc1: 2
62201f: 2
4c2570: 2
556f4d: 2
4cce80: 2
622591: 2
41066e: 2
4ebfa0: 2
54ff84: 2
6222b1: 2
550d38: 2
55241b: 2
556e40: 2
61d900: 2
620b82: 2
548301: 2
53f48a: 2
55008b: 2
546b30: 2
6222c1: 2
61ec00: 2
61d881: 2
55bebd: 2
4714ac: 2
64e150: 2
55bec1: 2
4c79fa: 2
556f19: 2
555bb1: 2
68021d: 2
4c8516: 2
615826: 2
549cc1: 2
41077b: 2
41242d: 2
4ea0bd: 2
67ce80: 2
549adf: 2
4c862b: 2
557190: 2
556e5c: 2
64caa6: 2
61d146: 2
47128d: 2
443880: 2
67c801: 2
67c843: 2
67c880: 2
68024f: 2
68062a: 2
67ccc1: 2
553500: 2
557041: 2
549881: 2
5498c3: 2
54c8c4: 2
67c681: 2
412241: 2
5500c0: 2
556281: 2
555ec1: 2
54efe0: 2
54ff6a: 2
4340c1: 2
550341: 2
4ea0c4: 2
555fc7: 2
55bed0: 2
549f7c: 2
549f00: 2
412442: 2
549c70: 2
55b73b: 2
620ac1: 2
556cc0: 2
55bb41: 2
556dd4: 2
501cb0: 2
549870: 2
443870: 2
61d040: 2
548570: 2
548582: 2
556dfe: 2
556e38: 2
552bd0: 2
556e80: 2
556ec2: 2
61d842: 2
6170c4: 2
67c520: 2
412200: 2
55bcd0: 2
411ba0: 2
622620: 2
544beb: 2
412417: 2
551001: 2
558a37: 2
445142: 3
544c81: 3
558d23: 3
55bf00: 3
471501: 3
61cef0: 3
617100: 3
549ace: 3
61cf00: 3
551090: 3
55bc80: 3
49c0e0: 3
51a843: 3
4c269a: 3
680f80: 3
550b25: 3
5501c2: 3
639783: 3
63e670: 3
61ec81: 3
550cc3: 3
55c010: 3
4ebb8b: 3
43b442: 3
54a500: 3
41cc10: 3
61d7e0: 3
558e48: 3
545947: 3
439c05: 3
545042: 3
47ea60: 3
550201: 3
67c67b: 3
67c33b: 3
550bc0: 3
41d410: 3
67c885: 3
4113c4: 3
51a7f1: 3
67c661: 3
549b40: 3
680307: 3
5458c0: 3
63ef00: 3
549a7b: 3
54cae0: 3
681460: 3
4123c0: 3
6806af: 3
67cc4f: 3
54ff04: 3
546b50: 3
67cc81: 3
67ce6f: 3
41d441: 3
55ba40: 3
54971f: 3
549afd: 3
5493c0: 3
549f70: 3
54976a: 3
411482: 3
67c340: 3
549a83: 3
54cb10: 3
549b03: 3
549d13: 3
549ec9: 3
41d422: 3
622641: 3
680f1c: 3
6157d0: 3
552c80: 3
549b81: 3
680f68: 3
61d0d3: 3
6802fd: 3
67c88c: 3
55c020: 3
550241: 3
552686: 3
63eef0: 3
410543: 3
67c7c7: 3
51a802: 3
6223e0: 3
546960: 3
411460: 3
61ec70: 3
544e62: 3
67c544: 3
5432b0: 3
61d108: 3
447960: 3
67c76c: 3
549fc1: 3
680599: 3
47e5c0: 3
68102b: 3
545882: 3
55bc40: 3
622010: 3
550c4c: 3
67c310: 3
680286: 3
556079: 3
620ad3: 3
617080: 3
61d081: 3
67c788: 3
67cf4e: 3
550ac4: 3
556344: 3
5507c0: 3
67c280: 3
67ceeb: 3
67c585: 3
5507d2: 3
67c5c0: 3
552482: 3
49815f: 3
5557ef: 3
6220ef: 3
67cf86: 3
55c0cc: 3
546b90: 4
622083: 4
558342: 4
544ec4: 4
555f40: 4
5453c6: 4
556302: 4
416f03: 4
5521c1: 4
558320: 4
545341: 4
55233a: 4
501cbe: 4
55bf60: 4
5463e0: 4
51a680: 4
55b160: 4
552142: 4
55bac3: 4
54a650: 4
550ecd: 4
550505: 4
411804: 4
549fa0: 4
559300: 4
54eec1: 4
549f83: 4
4117f3: 4
549cd5: 4
550c80: 4
620b35: 4
546502: 4
5592a0: 4
4e0580: 4
5592d2: 4
55b752: 4
544fc0: 4
63f5b0: 4
63f5c0: 4
47e640: 4
63e661: 4
63e640: 4
55003d: 5
5507b5: 5
55100a: 5
4c8508: 5
62207f: 5
559340: 5
621175: 5
552130: 5
444180: 5
558cf0: 5
558441: 5
4ebb04: 5
621183: 5
545080: 5
416300: 5
411c7a: 5
546ad0: 5
549c81: 5
553440: 6
621e1e: 6
4712c4: 6
4ea002: 6
63faf0: 6
64e1d0: 6
49bfab: 6
54531d: 6
55bf83: 6
6223dc: 6
55010d: 6
554ab7: 6
412640: 7
555b45: 7
54c958: 7
546607: 7
41072e: 7
55beb5: 7
550e40: 7
410641: 7
5505ce: 7
550b40: 7
621e95: 7
552282: 7
552603: 7
552440: 7
554ac0: 7
5505f1: 7
550eb0: 8
5524a0: 8
49bf40: 8
507650: 8
47ea80: 8
55b745: 8
550b86: 8
554a84: 8
623f34: 8
555b80: 8
55be45: 8
545247: 8
507581: 8
550bb3: 8
54eeb0: 8
55b1e5: 8
433f40: 8
443f00: 9
4441c1: 9
51a630: 9
55bb46: 9
544c9b: 9
6292d0: 9
550608: 9
641120: 9
4c2660: 9
621e83: 10
545283: 10
55baa0: 10
47d608: 10
550140: 10
5498b1: 10
544acf: 10
54547e: 10
55b187: 10
55bad3: 10
5525ac: 11
5465c0: 11
620aff: 11
558c2c: 11
555d9d: 11
558c3d: 11
5549c3: 11
62093b: 11
54ab40: 11
4ebf7c: 11
550f03: 12
54ef00: 12
555b04: 12
434103: 12
623f00: 12
49c100: 12
41d490: 12
545000: 12
4c2586: 12
550f84: 12
550400: 12
5504bd: 12
550280: 12
620ae0: 12
54aa80: 12
550f40: 12
4ebf82: 12
47eac0: 12
559488: 12
471481: 12
555a84: 13
555f06: 13
621f42: 13
549490: 13
546640: 13
555540: 13
5453bb: 13
544f08: 13
544f9e: 13
620980: 13
5012bc: 13
6225c0: 13
5502c1: 13
55044a: 13
55842d: 13
54eedc: 13
64e160: 13
55bba0: 13
54510b: 13
43ad21: 13
555f83: 13
501280: 13
41cc22: 13
5012f6: 13
546401: 13
51a66d: 13
550591: 13
5465b0: 13
552411: 13
51a641: 13
5451c1: 14
5522cd: 14
621f84: 14
412110: 14
501300: 14
544b74: 14
49bf82: 14
550542: 14
620b09: 14
620aa5: 14
629304: 14
54ff23: 14
558405: 14
620ab7: 14
443f82: 14
4ebb63: 14
5012ed: 14
629282: 14
621ec1: 14
5012c3: 14
5555c3: 14
5525c4: 14
550a80: 14
552120: 15
544b81: 15
622581: 15
47d430: 15
49c1c2: 15
62228f: 15
4ebaf4: 15
64cb03: 15
64e1e0: 15
43b438: 16
556495: 16
544907: 16
629270: 16
544914: 17
555afa: 17
620aad: 17
53f5b0: 17
622190: 17
412180: 17
550027: 17
55115d: 18
545140: 18
552598: 18
51a684: 18
5507ee: 18
550191: 19
55214d: 19
55067b: 19
47d53a: 19
556420: 19
47d5c0: 19
4e0578: 19
621dee: 19
4ebac0: 19
621fdb: 19
54ff8c: 19
62096e: 20
411b01: 20
400640: 20
621fc8: 20
5511ce: 20
621440: 21
47d596: 21
550075: 21
47d477: 21
4712bc: 22
411ac2: 22
555f8f: 23
47e5a0: 23
620d89: 23
55548c: 23
55564d: 24
545481: 24
4ea0c7: 24
400580: 25
54fff8: 25
4ebf30: 25
43b8f6: 25
444140: 25
410598: 25
4ebaeb: 26
555f27: 26
549030: 26
559440: 26
506f20: 26
43b43b: 26
49c1b0: 26
556027: 27
4e9fc4: 27
41cc4c: 28
47e5da: 28
548440: 28
55b6fe: 28
622002: 28
63fb0d: 29
623f09: 30
53e1b9: 30
47d3b5: 30
4ea048: 30
620a3f: 30
444004: 30
53f480: 30
64cac3: 30
623f20: 30
555400: 31
543401: 31
621f26: 31
54f002: 32
43b430: 32
433f36: 32
63e5fa: 33
55b7b0: 33
41cc4f: 33
548420: 34
621435: 34
41cc70: 34
506f34: 34
416e91: 35
55b176: 36
47d480: 39
4ebae4: 43
4441eb: 45
4713b5: 46
444197: 46
624580: 50
4c2667: 52
62257c: 55
63e5f6: 60
55b1c0: 63
4117af: 66
416eb9: 69
444028: 70
62919a: 70
41d1f7: 74
50754a: 78
6225da: 78
4ebe6b: 78
556275: 80
55b6eb: 88
6225ab: 125
4713bc: 146
55039d: 154
550397: 156
4712ab: 165
4713a9: 171
471411: 195
5525eb: 219
4441d5: 224
552252: 235
623f81: 243
550965: 252
4441ba: 278
5125d4: 339
471398: 418
4713a4: 447
55218c: 472
545190: 488
6408a3: 507
555bbb: 548
44512a: 661
55bb22: 675
62241f: 704
544edb: 743
443ff4: 747
4ea00b: 759
5583d5: 819
4441ae: 869
545380: 870
5525be: 904
4441c7: 928
5524d8: 935
552274: 942
411780: 964
54490e: 977
55bb00: 978
5524c9: 980
552182: 981
552270: 984
621e9a: 986
54515b: 999
62200b: 1107
550931: 1160
411aac: 1187
549100: 1192
411afa: 1232
41055f: 1238
545370: 1284
54c9b1: 1426
5555bc: 1431
6291b5: 1498
621ea4: 1655
411c4a: 1756
4712af: 1776
411b0d: 1967
47eb9a: 2283
4105d4: 2387
44427d: 2529
55bb37: 2561
41053f: 2565
411c5f: 2747
545180: 2999
621e17: 3064
555f7c: 3117
555f2e: 3120
411c3e: 3295
4ebf44: 3369
6291bb: 3570
6291c1: 3976
622407: 4447
416e8e: 4500
550b49: 4741
5507af: 4815
4450fb: 4832
549370: 4905
445148: 4949
550ab2: 4968
555b54: 4989
555b1a: 5054
41054e: 5073
47136d: 5313
4ebb70: 5355
471366: 5433
41191a: 5440
49c1ec: 5784
4168b0: 5935
47d45d: 5987
412730: 6840
5555a4: 7543
6408a0: 8204
507571: 8366
41d1f4: 8385
416eb6: 8774
555f5c: 9337
554a73: 9421
4168cb: 10871
4ebf40: 12485
4168b4: 12673
410737: 12897
4ebf76: 12941
555f6d: 12972
471394: 13696
433dff: 14344
62094f: 15594
620a5d: 15795
55bb1e: 16367
55bb33: 17595
41cc78: 17707
4340f0: 18399
47135d: 18680
416e84: 18718
471359: 18776
433def: 18855
55b173: 19898
41218b: 19948
550a73: 19990
555b34: 20061
5124e1: 20712
444020: 21409
4ea01d: 21915
4168ba: 22314
47e5d4: 22622
620aeb: 24250
41195a: 26538
47d453: 31182
416eb3: 32842
41cc81: 32969
47133d: 33608
416e72: 34049
54fe9b: 35194
4ec000: 37527
550ff8: 38387
54fefc: 38433
624599: 43214
416ef9: 50932
471351: 69117
4ea019: 76458
47134d: 82991
55bb13: 85600
4e9fc1: 87428
5432c8: 88452

RAW hits: 3212258
Loads Generated: 67448752
Loads sent to L1D: 64236494
Stores Generated: 37118330
Stores sent to L1D: 37118330
Major fault: 0 Minor fault: 47401
Allocated PAGES: 47401
Total Load insts: 79481242
Total Non-spec loads: 27004919
Percentage of speculative loads: 66.0235
L1D response latency: 122.335 cycles
Load retirement latency: 185.881 cycles


DRAM Statistics
 CHANNEL 0
 RQ ROW_BUFFER_HIT:     148346  ROW_BUFFER_MISS:    1832288
 DBUS_CONGESTED:        470
 WQ ROW_BUFFER_HIT:     201667  ROW_BUFFER_MISS:     672136  FULL:          0

 AVG_CONGESTED_CYCLE: 5
 All warmup complete: 2
Channel 0 Bank busy for read cycles: 0
Channel 0 Bank busy for write cycles: 0
Channel 0
Rank 0
0banks busy for read cycles: 531320145
0banks busy for write cycles: 460487
1banks busy for read cycles: 165299412
1banks busy for write cycles: 72877106
2banks busy for read cycles: 36713794
2banks busy for write cycles: 28834902
3banks busy for read cycles: 10338367
3banks busy for write cycles: 9984813
4banks busy for read cycles: 3037369
4banks busy for write cycles: 2938965
5banks busy for read cycles: 71443
5banks busy for write cycles: 746215
6banks busy for read cycles: 1702
6banks busy for write cycles: 161160
7banks busy for read cycles: 596
7banks busy for write cycles: 29604
8banks busy for read cycles: 0
8banks busy for write cycles: 4449

CPU 0 Branch Prediction Accuracy: 98.2082% MPKI: 3.72743 Average ROB Occupancy at Mispredict: 35.2286
Branch types
NOT_BRANCH: 158393552 79.1968%
BRANCH_DIRECT_JUMP: 2276304 1.13815%
BRANCH_INDIRECT: 671328 0.335664%
BRANCH_CONDITIONAL: 26768026 13.384%
BRANCH_DIRECT_CALL: 3559126 1.77956%
BRANCH_INDIRECT_CALL: 2386088 1.19304%
BRANCH_RETURN: 5945216 2.97261%
BRANCH_OTHER: 0 0%

DRAM PAGES: 1048576
Allocated PAGES: 47401
