
*** ChampSim Multicore Out-of-Order Simulator ***

Warmup Instructions: 50000000
Simulation Instructions: 200000000
Number of CPUs: 1
LLC sets: 2048
LLC ways: 16
Off-chip DRAM Size: 4096 MB Channels: 1 Width: 64-bit Data Rate: 6400 MT/s
CPU 0 runs /home/sumon/secure_berti/Berti_Baseline/../../traces/spec/649.fotonik3d_s-8225B.champsimtrace.xz
.xz
BTB has LRU replacement policy
ITLB has LRU replacement policy
DTLB has LRU replacement policy
STLB has LRU replacement policy
L1I has LRU replacement policy
L1D has LRU replacement policy
L2C has LRU replacement policy
LLC has LRU replacement policy
Heartbeat CPU 0 instructions: 10000001 cycles: 2925015 heartbeat IPC: 3.41879 cumulative IPC: 3.41879 (Simulation time: 0 hr 0 min 34 sec) 
Heartbeat CPU 0 instructions: 20000001 cycles: 5849820 heartbeat IPC: 3.41903 cumulative IPC: 3.41891 (Simulation time: 0 hr 1 min 9 sec) 
Heartbeat CPU 0 instructions: 30000000 cycles: 8774621 heartbeat IPC: 3.41904 cumulative IPC: 3.41895 (Simulation time: 0 hr 1 min 46 sec) 
Heartbeat CPU 0 instructions: 40000002 cycles: 11699424 heartbeat IPC: 3.41903 cumulative IPC: 3.41897 (Simulation time: 0 hr 2 min 29 sec) 
Heartbeat CPU 0 instructions: 50000001 cycles: 14624234 heartbeat IPC: 3.41903 cumulative IPC: 3.41898 (Simulation time: 0 hr 3 min 10 sec) 

Warmup complete CPU 0 instructions: 50000001 cycles: 14624234 (Simulation time: 0 hr 3 min 10 sec) 

Heartbeat CPU 0 instructions: 60000000 cycles: 31826107 heartbeat IPC: 0.581332 cumulative IPC: 0.581332 (Simulation time: 0 hr 4 min 16 sec) 
Heartbeat CPU 0 instructions: 70000001 cycles: 48992022 heartbeat IPC: 0.58255 cumulative IPC: 0.58194 (Simulation time: 0 hr 5 min 20 sec) 
Heartbeat CPU 0 instructions: 80000002 cycles: 66144108 heartbeat IPC: 0.583019 cumulative IPC: 0.5823 (Simulation time: 0 hr 6 min 32 sec) 
Heartbeat CPU 0 instructions: 90000000 cycles: 83358648 heartbeat IPC: 0.580904 cumulative IPC: 0.58195 (Simulation time: 0 hr 7 min 45 sec) 
Heartbeat CPU 0 instructions: 100000000 cycles: 100482534 heartbeat IPC: 0.58398 cumulative IPC: 0.582355 (Simulation time: 0 hr 8 min 54 sec) 
Heartbeat CPU 0 instructions: 110000000 cycles: 117660588 heartbeat IPC: 0.582138 cumulative IPC: 0.582319 (Simulation time: 0 hr 10 min 8 sec) 
Heartbeat CPU 0 instructions: 120000002 cycles: 134811499 heartbeat IPC: 0.58306 cumulative IPC: 0.582424 (Simulation time: 0 hr 11 min 25 sec) 
Heartbeat CPU 0 instructions: 130000000 cycles: 151999662 heartbeat IPC: 0.581796 cumulative IPC: 0.582346 (Simulation time: 0 hr 12 min 37 sec) 
Heartbeat CPU 0 instructions: 140000001 cycles: 169214970 heartbeat IPC: 0.580878 cumulative IPC: 0.582182 (Simulation time: 0 hr 13 min 48 sec) 
Heartbeat CPU 0 instructions: 150000003 cycles: 186395894 heartbeat IPC: 0.582041 cumulative IPC: 0.582168 (Simulation time: 0 hr 15 min 3 sec) 
Heartbeat CPU 0 instructions: 160000003 cycles: 203548942 heartbeat IPC: 0.582987 cumulative IPC: 0.582243 (Simulation time: 0 hr 16 min 14 sec) 
Heartbeat CPU 0 instructions: 170000001 cycles: 220717444 heartbeat IPC: 0.582462 cumulative IPC: 0.582261 (Simulation time: 0 hr 17 min 29 sec) 
Heartbeat CPU 0 instructions: 180000002 cycles: 237883897 heartbeat IPC: 0.582532 cumulative IPC: 0.582282 (Simulation time: 0 hr 19 min 35 sec) 
Heartbeat CPU 0 instructions: 190000003 cycles: 255098208 heartbeat IPC: 0.580912 cumulative IPC: 0.582184 (Simulation time: 0 hr 23 min 54 sec) 
Heartbeat CPU 0 instructions: 200000000 cycles: 272241509 heartbeat IPC: 0.583318 cumulative IPC: 0.582259 (Simulation time: 0 hr 27 min 57 sec) 
Heartbeat CPU 0 instructions: 210000001 cycles: 289449373 heartbeat IPC: 0.58113 cumulative IPC: 0.582188 (Simulation time: 0 hr 31 min 18 sec) 
Heartbeat CPU 0 instructions: 220000000 cycles: 306634464 heartbeat IPC: 0.5819 cumulative IPC: 0.582171 (Simulation time: 0 hr 34 min 42 sec) 
Heartbeat CPU 0 instructions: 230000003 cycles: 323805084 heartbeat IPC: 0.58239 cumulative IPC: 0.582184 (Simulation time: 0 hr 37 min 3 sec) 
Heartbeat CPU 0 instructions: 240000000 cycles: 340991706 heartbeat IPC: 0.581848 cumulative IPC: 0.582166 (Simulation time: 0 hr 37 min 55 sec) 
Heartbeat CPU 0 instructions: 250000003 cycles: 358154259 heartbeat IPC: 0.582664 cumulative IPC: 0.582191 (Simulation time: 0 hr 38 min 39 sec) 
Finished CPU 0 instructions: 200000002 cycles: 343530025 cumulative IPC: 0.582191 (Simulation time: 0 hr 38 min 39 sec) 

ChampSim completed all CPUs

Region of Interest Statistics

CPU 0 cumulative IPC: 0.582191 instructions: 200000002 cycles: 343530025
ITLB TOTAL     ACCESS:   28431128  HIT:   28431128  MISS:          0  HIT %:        100  MISS %:          0   MPKI: 0
ITLB Test counter:          0
ITLB LOAD TRANSLATION ACCESS:   28431128  HIT:   28431128  MISS:          0  HIT %:        100  MISS %:          0   MPKI: 0
ITLB PREFETCH  REQUESTED:          0  ISSUED:          0  USEFUL:          0  USELESS:          0
ITLB USEFUL LOAD PREFETCHES:          0 PREFETCH ISSUED TO LOWER LEVEL:          0  ACCURACY: -nan
ITLB TIMELY PREFETCHES:          0 LATE PREFETCHES: 0 DROPPED PREFETCHES: 0
ITLB COMMIT LATE PREFETCHES: 0 MISSED OPPORTUNITY: 0 LATE IN PQ: 0 UNCOVERED: 0
ITLB COMMIT LATE MSHR PREFETCHES: 0
ITLB MPKI TOTAL: 0 MSHR LATE: 0 PQ LATE: 0 COMMIT LATE: 0 MISSED OPPORTUNITY: 0 UNCOVERED: 0
ITLB PREFETCHES SAME FILL-ORIGIN LEVEL: 0 DIFFERENT FILL-ORIGIN LEVEL: 0
ITLB AVERAGE MISS LATENCY: -nan cycles
ITLB AVERAGE MISS LATENCY LOAD: -nan cycles
ITLB AVERAGE MISS LATENCY PREFETCH: -nan cycles
ITLB AVERAGE MSHR OCCUPANCY: 0
ITLB MSHR FULL: 0
ITLB RQ	ACCESS:   35474571	FORWARD:          0	MERGED:    7043443	TO_CACHE:   28431128

DTLB TOTAL     ACCESS:   26060194  HIT:   26013322  MISS:      46872  HIT %:    99.8201  MISS %:   0.179861   MPKI: 0.23436
DTLB Test counter:          0
DTLB LOAD TRANSLATION ACCESS:   26060194  HIT:   26013322  MISS:      46872  HIT %:    99.8201  MISS %:   0.179861   MPKI: 0.23436
DTLB PREFETCH  REQUESTED:          0  ISSUED:          0  USEFUL:          0  USELESS:          0
DTLB USEFUL LOAD PREFETCHES:          0 PREFETCH ISSUED TO LOWER LEVEL:          0  ACCURACY: -nan
DTLB TIMELY PREFETCHES:          0 LATE PREFETCHES: 0 DROPPED PREFETCHES: 0
DTLB COMMIT LATE PREFETCHES: 0 MISSED OPPORTUNITY: 0 LATE IN PQ: 0 UNCOVERED: 0
DTLB COMMIT LATE MSHR PREFETCHES: 0
DTLB MPKI TOTAL: 0 MSHR LATE: 0 PQ LATE: 0 COMMIT LATE: 0 MISSED OPPORTUNITY: 0 UNCOVERED: 0
DTLB PREFETCHES SAME FILL-ORIGIN LEVEL: 0 DIFFERENT FILL-ORIGIN LEVEL: 0
DTLB AVERAGE MISS LATENCY: 89.4818 cycles
DTLB AVERAGE MISS LATENCY LOAD: -nan cycles
DTLB AVERAGE MISS LATENCY PREFETCH: -nan cycles
DTLB AVERAGE MSHR OCCUPANCY: 0.00412576
DTLB MSHR FULL: 0
DTLB RQ	ACCESS:   39798167	FORWARD:          0	MERGED:   13735836	TO_CACHE:   26062331

STLB TOTAL     ACCESS:      46872  HIT:      19423  MISS:      27449  HIT %:    41.4384  MISS %:    58.5616   MPKI: 0.137245
STLB Test counter:          0
STLB LOAD TRANSLATION ACCESS:      46872  HIT:      19423  MISS:      27449  HIT %:    41.4384  MISS %:    58.5616   MPKI: 0.137245
STLB PREFETCH  REQUESTED:          0  ISSUED:          0  USEFUL:          0  USELESS:          0
STLB USEFUL LOAD PREFETCHES:          0 PREFETCH ISSUED TO LOWER LEVEL:          0  ACCURACY: -nan
STLB TIMELY PREFETCHES:          0 LATE PREFETCHES: 0 DROPPED PREFETCHES: 0
STLB COMMIT LATE PREFETCHES: 0 MISSED OPPORTUNITY: 0 LATE IN PQ: 0 UNCOVERED: 0
STLB COMMIT LATE MSHR PREFETCHES: 0
STLB MPKI TOTAL: 0 MSHR LATE: 0 PQ LATE: 0 COMMIT LATE: 0 MISSED OPPORTUNITY: 0 UNCOVERED: 0
STLB PREFETCHES SAME FILL-ORIGIN LEVEL: 0 DIFFERENT FILL-ORIGIN LEVEL: 0
STLB AVERAGE MISS LATENCY: 137.38 cycles
STLB AVERAGE MISS LATENCY LOAD: -nan cycles
STLB AVERAGE MISS LATENCY PREFETCH: -nan cycles
STLB AVERAGE MSHR OCCUPANCY: 0.00230415
STLB MSHR FULL: 0
STLB RQ	ACCESS:      46872	FORWARD:          0	MERGED:          0	TO_CACHE:      46872

STLB Hit, L1D data hit: 0
STLB Hit, L2C data hit: 0
STLB Hit, LLC data hit: 0
STLB Hit, LLC data miss: 0
STLB STLB hints to L2: 0
L1D TOTAL     ACCESS:   37850594  HIT:   35203848  MISS:    2646746  HIT %:    93.0074  MISS %:    6.99261   MPKI: 13.2337
L1D Test counter:          0
L1D LOAD      ACCESS:   23815838  HIT:   21171725  MISS:    4585347  HIT %:    88.8977  MISS %:    11.1023   MPKI: 13.2206
L1D RFO       ACCESS:   14034756  HIT:   14032123  MISS:       2633  HIT %:    99.9812  MISS %:  0.0187606   MPKI: 0.013165
L1D PREFETCH  REQUESTED:          0  ISSUED:          0  USEFUL:          0  USELESS:          0
L1D USEFUL LOAD PREFETCHES:          0 PREFETCH ISSUED TO LOWER LEVEL:          0  ACCURACY: -nan
L1D TIMELY PREFETCHES:          0 LATE PREFETCHES: 0 DROPPED PREFETCHES: 0
L1D COMMIT LATE PREFETCHES: 0 MISSED OPPORTUNITY: 0 LATE IN PQ: 0 UNCOVERED: 0
L1D COMMIT LATE MSHR PREFETCHES: 0
L1D MPKI TOTAL: 22.9267 MSHR LATE: 0 PQ LATE: 0 COMMIT LATE: 0 MISSED OPPORTUNITY: 0 UNCOVERED: 0
L1D PREFETCHES SAME FILL-ORIGIN LEVEL: 0 DIFFERENT FILL-ORIGIN LEVEL: 0
L1D AVERAGE MISS LATENCY: 148.116 cycles
L1D AVERAGE MISS LATENCY LOAD: 148.24 cycles
L1D AVERAGE MISS LATENCY PREFETCH: -nan cycles
L1D AVERAGE MSHR OCCUPANCY: 0.615573
L1D MSHR FULL: 0
L1D RQ	ACCESS:   70165732	FORWARD:          0	MERGED:   44408318	TO_CACHE:   25757071
L1D WQ	ACCESS:   14041096	FORWARD:        343	MERGED:          0	TO_CACHE:   14041096

L1D UNIQUE REGIONS ACCESSED: 0
L1D REGIONS CONFLICTS: 0
L1D Cross Page Prefetch Requests: 0
L1D Same Page Prefetch Requests: 0
L1D ROI Sum of L1D PQ occupancy: 0
L1D PREFETCHES PUSHED FROM L2C: 0
404bb2: 54
40452b: 54
404533: 55
405c2a: 61
405d70: 84
404b43: 136
405d6a: 354
405c30: 377
405afe: 433
404bb7: 438
405cd4: 438
404b33: 438
405bdd: 438
405b8e: 438
404a74: 438
404a26: 438
405bd6: 438
404580: 438
404bfc: 438
40450c: 438
4043c6: 438
404552: 438
405ac3: 438
404578: 438
404375: 438
405d00: 438
404561: 438
405e1a: 438
405bc0: 438
405acd: 438
405d1d: 438
405ce9: 438
404ba3: 438
405b0d: 438
405d16: 438
404be8: 438
40451c: 438
405ce0: 438
405cb2: 197102
405df2: 202125
405d32: 438000
405bf2: 438748
405dec: 674094
405cac: 679734
L1I TOTAL     ACCESS:   35474570  HIT:   35474570  MISS:          0  HIT %:        100  MISS %:          0   MPKI: 0
L1I Test counter:          0
L1I LOAD      ACCESS:   35474570  HIT:   35474570  MISS:          0  HIT %:        100  MISS %:          0   MPKI: 0
L1I PREFETCH  REQUESTED:          0  ISSUED:          0  USEFUL:          0  USELESS:          0
L1I USEFUL LOAD PREFETCHES:          0 PREFETCH ISSUED TO LOWER LEVEL:          0  ACCURACY: -nan
L1I TIMELY PREFETCHES:          0 LATE PREFETCHES: 0 DROPPED PREFETCHES: 0
L1I COMMIT LATE PREFETCHES: 0 MISSED OPPORTUNITY: 0 LATE IN PQ: 0 UNCOVERED: 0
L1I COMMIT LATE MSHR PREFETCHES: 0
L1I MPKI TOTAL: 0 MSHR LATE: 0 PQ LATE: 0 COMMIT LATE: 0 MISSED OPPORTUNITY: 0 UNCOVERED: 0
L1I PREFETCHES SAME FILL-ORIGIN LEVEL: 0 DIFFERENT FILL-ORIGIN LEVEL: 0
L1I AVERAGE MISS LATENCY: -nan cycles
L1I AVERAGE MISS LATENCY LOAD: -nan cycles
L1I AVERAGE MISS LATENCY PREFETCH: -nan cycles
L1I AVERAGE MSHR OCCUPANCY: 0
L1I MSHR FULL: 0
L1I RQ	ACCESS:   48780413	FORWARD:          0	MERGED:   13305842	TO_CACHE:   35474571

BTB TOTAL     ACCESS:    3509178  HIT:    3509169  MISS:          9  HIT %:    99.9997  MISS %: 0.00025647   MPKI: 4.5e-05
BTB Test counter:          0
BTB BRANCH_DIRECT_JUMP	ACCESS:        876  HIT:        874  MISS:          2
BTB BRANCH_INDIRECT	ACCESS:          0  HIT:          0  MISS:          0
BTB BRANCH_CONDITIONAL	ACCESS:    3506550  HIT:    3506547  MISS:          3
BTB BRANCH_DIRECT_CALL	ACCESS:        876  HIT:        874  MISS:          2
BTB BRANCH_INDIRECT_CALL	ACCESS:          0  HIT:          0  MISS:          0
BTB BRANCH_RETURN	ACCESS:        876  HIT:        874  MISS:          2
BTB BRANCH_OTHER ACCESS:          0  HIT:          0  MISS:          0

L2C TOTAL     ACCESS:    4431640  HIT:    2644518  MISS:    1787122  HIT %:    59.6736  MISS %:    40.3264   MPKI: 8.93561
L2C Test counter:          0
L2C LOAD      ACCESS:    2644112  HIT:     861294  MISS:    1782819  HIT %:     32.574  MISS %:     67.426   MPKI: 8.91409
L2C DATA LOAD MPKI: 8.91409
L2C INSTRUCTION LOAD MPKI: 0
L2C RFO       ACCESS:       2633  HIT:       1878  MISS:        755  HIT %:    71.3255  MISS %:    28.6745   MPKI: 0.003775
L2C WRITEBACK ACCESS:    1757432  HIT:    1757432  MISS:          0  HIT %:        100  MISS %:          0   MPKI: 0
L2C LOAD TRANSLATION ACCESS:      27463  HIT:      23914  MISS:       3549  HIT %:    87.0772  MISS %:    12.9228   MPKI: 0.017745
L2C PREFETCH  REQUESTED:          0  ISSUED:          0  USEFUL:          0  USELESS:          0
L2C USEFUL LOAD PREFETCHES:          0 PREFETCH ISSUED TO LOWER LEVEL:          0  ACCURACY: -nan
L2C TIMELY PREFETCHES:          0 LATE PREFETCHES: 0 DROPPED PREFETCHES: 0
L2C COMMIT LATE PREFETCHES: 0 MISSED OPPORTUNITY: 0 LATE IN PQ: 0 UNCOVERED: 0
L2C COMMIT LATE MSHR PREFETCHES: 0
L2C MPKI TOTAL: 8.91409 MSHR LATE: 0 PQ LATE: 0 COMMIT LATE: 0 MISSED OPPORTUNITY: 0 UNCOVERED: 0
L2C PREFETCHES SAME FILL-ORIGIN LEVEL: 0 DIFFERENT FILL-ORIGIN LEVEL: 0
L2C AVERAGE MISS LATENCY: 197.429 cycles
L2C AVERAGE MISS LATENCY LOAD: 197.488 cycles
L2C AVERAGE MISS LATENCY PREFETCH: -nan cycles
L2C AVERAGE MSHR OCCUPANCY: 0.38612
L2C MSHR FULL: 0
L2C RQ	ACCESS:    2674209	FORWARD:          0	MERGED:          0	TO_CACHE:    2674209
L2C WQ	ACCESS:    1757432	FORWARD:          0	MERGED:          0	TO_CACHE:    1757432

L2C Instructions Evicting Data 0
L2C Translations Evicting Data 3549
L2C Data Evicting Data 1780024
L2C Instructions Evicting Instructions 0
L2C Translations Evicting Instructions 0
L2C Data Evicting Instructions 0
L2C Instructions Evicting Translations 0
L2C Translations Evicting Translations 0
L2C Data Evicting Translations 3549
L2C Dense regions hint from L2: 0
4043c6: 16
404a26: 16
405d16: 17
404375: 17
405d1d: 17
404ba3: 17
405bdd: 18
404a74: 18
405d00: 18
405bd6: 19
405bc0: 20
405acd: 20
405ac3: 21
404bb2: 54
40452b: 54
404533: 55
404be8: 67
404bfc: 68
40451c: 87
404578: 101
404580: 101
404552: 106
404561: 110
40450c: 115
404b33: 124
404b43: 136
405afe: 372
405b0d: 376
405bf2: 8856
405d32: 18747
405cb2: 197102
405df2: 202125
405dec: 674094
405cac: 679734
PSCL5 TOTAL     ACCESS:      27449  HIT:      27449  MISS:          0  HIT %:        100  MISS %:          0   MPKI: 0
PSCL5 Test counter:          0
PSCL5 LOAD TRANSLATION ACCESS:      27449  HIT:      27449  MISS:          0  HIT %:        100  MISS %:          0   MPKI: 0
PSCL5 PREFETCH  REQUESTED:          0  ISSUED:          0  USEFUL:          0  USELESS:          0
PSCL5 USEFUL LOAD PREFETCHES:          0 PREFETCH ISSUED TO LOWER LEVEL:          0  ACCURACY: -nan
PSCL5 TIMELY PREFETCHES:          0 LATE PREFETCHES: 0 DROPPED PREFETCHES: 0
PSCL5 COMMIT LATE PREFETCHES: 0 MISSED OPPORTUNITY: 0 LATE IN PQ: 0 UNCOVERED: 0
PSCL5 COMMIT LATE MSHR PREFETCHES: 0
PSCL5 MPKI TOTAL: 0 MSHR LATE: 0 PQ LATE: 0 COMMIT LATE: 0 MISSED OPPORTUNITY: 0 UNCOVERED: 0
PSCL5 PREFETCHES SAME FILL-ORIGIN LEVEL: 0 DIFFERENT FILL-ORIGIN LEVEL: 0

PSCL4 TOTAL     ACCESS:      27449  HIT:      27449  MISS:          0  HIT %:        100  MISS %:          0   MPKI: 0
PSCL4 Test counter:          0
PSCL4 LOAD TRANSLATION ACCESS:      27449  HIT:      27449  MISS:          0  HIT %:        100  MISS %:          0   MPKI: 0
PSCL4 PREFETCH  REQUESTED:          0  ISSUED:          0  USEFUL:          0  USELESS:          0
PSCL4 USEFUL LOAD PREFETCHES:          0 PREFETCH ISSUED TO LOWER LEVEL:          0  ACCURACY: -nan
PSCL4 TIMELY PREFETCHES:          0 LATE PREFETCHES: 0 DROPPED PREFETCHES: 0
PSCL4 COMMIT LATE PREFETCHES: 0 MISSED OPPORTUNITY: 0 LATE IN PQ: 0 UNCOVERED: 0
PSCL4 COMMIT LATE MSHR PREFETCHES: 0
PSCL4 MPKI TOTAL: 0 MSHR LATE: 0 PQ LATE: 0 COMMIT LATE: 0 MISSED OPPORTUNITY: 0 UNCOVERED: 0
PSCL4 PREFETCHES SAME FILL-ORIGIN LEVEL: 0 DIFFERENT FILL-ORIGIN LEVEL: 0

PSCL3 TOTAL     ACCESS:      26933  HIT:      26923  MISS:         10  HIT %:    99.9629  MISS %:  0.0371292   MPKI: 5e-05
PSCL3 Test counter:          0
PSCL3 LOAD TRANSLATION ACCESS:      26933  HIT:      26923  MISS:         10  HIT %:    99.9629  MISS %:  0.0371292   MPKI: 5e-05
PSCL3 PREFETCH  REQUESTED:          0  ISSUED:          0  USEFUL:          0  USELESS:          0
PSCL3 USEFUL LOAD PREFETCHES:          0 PREFETCH ISSUED TO LOWER LEVEL:          0  ACCURACY: -nan
PSCL3 TIMELY PREFETCHES:          0 LATE PREFETCHES: 0 DROPPED PREFETCHES: 0
PSCL3 COMMIT LATE PREFETCHES: 0 MISSED OPPORTUNITY: 0 LATE IN PQ: 0 UNCOVERED: 0
PSCL3 COMMIT LATE MSHR PREFETCHES: 0
PSCL3 MPKI TOTAL: 0 MSHR LATE: 0 PQ LATE: 0 COMMIT LATE: 0 MISSED OPPORTUNITY: 0 UNCOVERED: 0
PSCL3 PREFETCHES SAME FILL-ORIGIN LEVEL: 0 DIFFERENT FILL-ORIGIN LEVEL: 0

PSCL2 TOTAL     ACCESS:      27449  HIT:      27356  MISS:         93  HIT %:    99.6612  MISS %:    0.33881   MPKI: 0.000465
PSCL2 Test counter:          0
PSCL2 LOAD TRANSLATION ACCESS:      27449  HIT:      27356  MISS:         93  HIT %:    99.6612  MISS %:    0.33881   MPKI: 0.000465
PSCL2 PREFETCH  REQUESTED:          0  ISSUED:          0  USEFUL:          0  USELESS:          0
PSCL2 USEFUL LOAD PREFETCHES:          0 PREFETCH ISSUED TO LOWER LEVEL:          0  ACCURACY: -nan
PSCL2 TIMELY PREFETCHES:          0 LATE PREFETCHES: 0 DROPPED PREFETCHES: 0
PSCL2 COMMIT LATE PREFETCHES: 0 MISSED OPPORTUNITY: 0 LATE IN PQ: 0 UNCOVERED: 0
PSCL2 COMMIT LATE MSHR PREFETCHES: 0
PSCL2 MPKI TOTAL: 0 MSHR LATE: 0 PQ LATE: 0 COMMIT LATE: 0 MISSED OPPORTUNITY: 0 UNCOVERED: 0
PSCL2 PREFETCHES SAME FILL-ORIGIN LEVEL: 0 DIFFERENT FILL-ORIGIN LEVEL: 0

LLC TOTAL     ACCESS:    3541298  HIT:    1774446  MISS:    1766852  HIT %:    50.1072  MISS %:    49.8928   MPKI: 8.83426
LLC Test counter:          0
LLC LOAD      ACCESS:    1782818  HIT:      19514  MISS:    1763304  HIT %:    1.09456  MISS %:    98.9054   MPKI: 8.81652
LLC RFO       ACCESS:        755  HIT:        755  MISS:          0  HIT %:        100  MISS %:          0   MPKI: 0
LLC WRITEBACK ACCESS:    1754176  HIT:    1754176  MISS:          0  HIT %:        100  MISS %:          0   MPKI: 0
LLC LOAD TRANSLATION ACCESS:       3549  HIT:          1  MISS:       3548  HIT %:   0.028177  MISS %:    99.9718   MPKI: 0.01774
LLC PREFETCH  REQUESTED:          0  ISSUED:          0  USEFUL:          0  USELESS:          0
LLC USEFUL LOAD PREFETCHES:          0 PREFETCH ISSUED TO LOWER LEVEL:          0  ACCURACY: -nan
LLC TIMELY PREFETCHES:          0 LATE PREFETCHES: 0 DROPPED PREFETCHES: 0
LLC COMMIT LATE PREFETCHES: 0 MISSED OPPORTUNITY: 0 LATE IN PQ: 0 UNCOVERED: 0
LLC COMMIT LATE MSHR PREFETCHES: 0
LLC MPKI TOTAL: 8.81652 MSHR LATE: 0 PQ LATE: 0 COMMIT LATE: 0 MISSED OPPORTUNITY: 0 UNCOVERED: 0
LLC PREFETCHES SAME FILL-ORIGIN LEVEL: 0 DIFFERENT FILL-ORIGIN LEVEL: 0
LLC AVERAGE MISS LATENCY: 169.343 cycles
LLC AVERAGE MISS LATENCY LOAD: 169.335 cycles
LLC AVERAGE MISS LATENCY PREFETCH: -nan cycles
LLC AVERAGE MSHR OCCUPANCY: 0.354691
LLC MSHR FULL: 0
LLC RQ	ACCESS:    1787123	FORWARD:          0	MERGED:          0	TO_CACHE:    1787123
LLC WQ	ACCESS:    1754176	FORWARD:          0	MERGED:          0	TO_CACHE:    1754176

LLC Dense regions hint to LLC: 0
40451c: 9
404ba3: 9
40450c: 10
404a26: 12
4043c6: 12
405bdd: 13
404375: 13
405bc0: 13
405acd: 13
405d16: 13
404a74: 13
405bd6: 13
405d1d: 14
405d00: 14
405ac3: 14
40452b: 54
404bb2: 54
404b33: 55
404533: 55
404580: 63
404561: 63
404578: 63
404552: 63
404bfc: 64
404be8: 64
404b43: 136
405bf2: 3176
405d32: 6154
405cb2: 197102
405df2: 202125
405dec: 674094
405cac: 679734

RAW hits: 3379
Loads Generated: 70169121
Loads sent to L1D: 70165732
Stores Generated: 14041090
Stores sent to L1D: 14041096
Major fault: 0 Minor fault: 34487
Allocated PAGES: 34487
Total Load insts: 87706823
Total Non-spec loads: 3741426
Percentage of speculative loads: 95.7342
L1D response latency: 148.24 cycles
Load retirement latency: 198.348 cycles


DRAM Statistics
 CHANNEL 0
 RQ ROW_BUFFER_HIT:      12486  ROW_BUFFER_MISS:    1754366
 DBUS_CONGESTED:        568
 WQ ROW_BUFFER_HIT:    1591465  ROW_BUFFER_MISS:     161702  FULL:          0

 AVG_CONGESTED_CYCLE: 6
 All warmup complete: 2
Channel 0 Bank busy for read cycles: 0
Channel 0 Bank busy for write cycles: 0
Channel 0
Rank 0
0banks busy for read cycles: 3271536
0banks busy for write cycles: 21513
1banks busy for read cycles: 139777649
1banks busy for write cycles: 9213099
2banks busy for read cycles: 61994174
2banks busy for write cycles: 54367374
3banks busy for read cycles: 4408
3banks busy for write cycles: 52054199
4banks busy for read cycles: 895
4banks busy for write cycles: 12696907
5banks busy for read cycles: 0
5banks busy for write cycles: 8789305
6banks busy for read cycles: 0
6banks busy for write cycles: 1053316
7banks busy for read cycles: 0
7banks busy for write cycles: 251804
8banks busy for read cycles: 0
8banks busy for write cycles: 33847

CPU 0 Branch Prediction Accuracy: 99.9751% MPKI: 0.00438 Average ROB Occupancy at Mispredict: 312.918
Branch types
NOT_BRANCH: 196487706 98.2439%
BRANCH_DIRECT_JUMP: 876 0.000438%
BRANCH_INDIRECT: 0 0%
BRANCH_CONDITIONAL: 3509616 1.75481%
BRANCH_DIRECT_CALL: 876 0.000438%
BRANCH_INDIRECT_CALL: 0 0%
BRANCH_RETURN: 876 0.000438%
BRANCH_OTHER: 0 0%

DRAM PAGES: 1048576
Allocated PAGES: 34487
