
*** ChampSim Multicore Out-of-Order Simulator ***

Warmup Instructions: 50000000
Simulation Instructions: 200000000
Number of CPUs: 1
LLC sets: 2048
LLC ways: 16
Off-chip DRAM Size: 4096 MB Channels: 1 Width: 64-bit Data Rate: 6400 MT/s
CPU 0 runs /home/sumon/secure_berti/Berti_Baseline/../../traces/spec/649.fotonik3d_s-7084B.champsimtrace.xz
.xz
BTB has LRU replacement policy
ITLB has LRU replacement policy
DTLB has LRU replacement policy
STLB has LRU replacement policy
L1I has LRU replacement policy
L1D has LRU replacement policy
L2C has LRU replacement policy
LLC has LRU replacement policy
Heartbeat CPU 0 instructions: 10000001 cycles: 2917184 heartbeat IPC: 3.42796 cumulative IPC: 3.42796 (Simulation time: 0 hr 0 min 39 sec) 
Heartbeat CPU 0 instructions: 20000001 cycles: 5834089 heartbeat IPC: 3.42829 cumulative IPC: 3.42813 (Simulation time: 0 hr 1 min 16 sec) 
Heartbeat CPU 0 instructions: 30000001 cycles: 8754616 heartbeat IPC: 3.42404 cumulative IPC: 3.42676 (Simulation time: 0 hr 1 min 58 sec) 
Heartbeat CPU 0 instructions: 40000003 cycles: 11679559 heartbeat IPC: 3.41887 cumulative IPC: 3.42479 (Simulation time: 0 hr 2 min 44 sec) 
Heartbeat CPU 0 instructions: 50000002 cycles: 14611715 heartbeat IPC: 3.41046 cumulative IPC: 3.42191 (Simulation time: 0 hr 3 min 29 sec) 

Warmup complete CPU 0 instructions: 50000002 cycles: 14611715 (Simulation time: 0 hr 3 min 29 sec) 

Heartbeat CPU 0 instructions: 60000002 cycles: 32096952 heartbeat IPC: 0.571911 cumulative IPC: 0.571911 (Simulation time: 0 hr 4 min 43 sec) 
Heartbeat CPU 0 instructions: 70000002 cycles: 49410902 heartbeat IPC: 0.577569 cumulative IPC: 0.574726 (Simulation time: 0 hr 6 min 3 sec) 
Heartbeat CPU 0 instructions: 80000001 cycles: 66125598 heartbeat IPC: 0.598276 cumulative IPC: 0.582367 (Simulation time: 0 hr 7 min 4 sec) 
Heartbeat CPU 0 instructions: 90000003 cycles: 82768393 heartbeat IPC: 0.600861 cumulative IPC: 0.586883 (Simulation time: 0 hr 8 min 26 sec) 
Heartbeat CPU 0 instructions: 100000003 cycles: 99290555 heartbeat IPC: 0.605248 cumulative IPC: 0.590466 (Simulation time: 0 hr 9 min 39 sec) 
Heartbeat CPU 0 instructions: 110000000 cycles: 116194346 heartbeat IPC: 0.591583 cumulative IPC: 0.590652 (Simulation time: 0 hr 11 min 0 sec) 
Heartbeat CPU 0 instructions: 120000000 cycles: 133264973 heartbeat IPC: 0.585802 cumulative IPC: 0.589954 (Simulation time: 0 hr 12 min 20 sec) 
Heartbeat CPU 0 instructions: 130000001 cycles: 150304891 heartbeat IPC: 0.586857 cumulative IPC: 0.589565 (Simulation time: 0 hr 13 min 46 sec) 
Heartbeat CPU 0 instructions: 140000001 cycles: 167226340 heartbeat IPC: 0.590966 cumulative IPC: 0.589721 (Simulation time: 0 hr 15 min 10 sec) 
Heartbeat CPU 0 instructions: 150000001 cycles: 183931251 heartbeat IPC: 0.598626 cumulative IPC: 0.590599 (Simulation time: 0 hr 16 min 21 sec) 
Heartbeat CPU 0 instructions: 160000002 cycles: 201369959 heartbeat IPC: 0.573437 cumulative IPC: 0.588997 (Simulation time: 0 hr 17 min 46 sec) 
Heartbeat CPU 0 instructions: 170000003 cycles: 218850696 heartbeat IPC: 0.572058 cumulative IPC: 0.587547 (Simulation time: 0 hr 20 min 46 sec) 
Heartbeat CPU 0 instructions: 180000001 cycles: 236165377 heartbeat IPC: 0.577544 cumulative IPC: 0.586765 (Simulation time: 0 hr 24 min 45 sec) 
Heartbeat CPU 0 instructions: 190000002 cycles: 253391837 heartbeat IPC: 0.580502 cumulative IPC: 0.586313 (Simulation time: 0 hr 28 min 53 sec) 
Heartbeat CPU 0 instructions: 200000000 cycles: 270444938 heartbeat IPC: 0.586403 cumulative IPC: 0.586319 (Simulation time: 0 hr 33 min 15 sec) 
Heartbeat CPU 0 instructions: 210000001 cycles: 287247228 heartbeat IPC: 0.595157 cumulative IPC: 0.586864 (Simulation time: 0 hr 36 min 51 sec) 
Heartbeat CPU 0 instructions: 220000000 cycles: 303985978 heartbeat IPC: 0.597416 cumulative IPC: 0.587474 (Simulation time: 0 hr 38 min 0 sec) 
Heartbeat CPU 0 instructions: 230000001 cycles: 320625046 heartbeat IPC: 0.600995 cumulative IPC: 0.58821 (Simulation time: 0 hr 38 min 44 sec) 
Heartbeat CPU 0 instructions: 240000002 cycles: 337668390 heartbeat IPC: 0.586739 cumulative IPC: 0.588132 (Simulation time: 0 hr 39 min 27 sec) 
Heartbeat CPU 0 instructions: 250000000 cycles: 355502552 heartbeat IPC: 0.560722 cumulative IPC: 0.586698 (Simulation time: 0 hr 40 min 11 sec) 
Finished CPU 0 instructions: 200000002 cycles: 340890838 cumulative IPC: 0.586698 (Simulation time: 0 hr 40 min 11 sec) 

ChampSim completed all CPUs

Region of Interest Statistics

CPU 0 cumulative IPC: 0.586698 instructions: 200000002 cycles: 340890838
ITLB TOTAL     ACCESS:   25142786  HIT:   25142786  MISS:          0  HIT %:        100  MISS %:          0   MPKI: 0
ITLB Test counter:          0
ITLB LOAD TRANSLATION ACCESS:   25142786  HIT:   25142786  MISS:          0  HIT %:        100  MISS %:          0   MPKI: 0
ITLB PREFETCH  REQUESTED:          0  ISSUED:          0  USEFUL:          0  USELESS:          0
ITLB USEFUL LOAD PREFETCHES:          0 PREFETCH ISSUED TO LOWER LEVEL:          0  ACCURACY: -nan
ITLB TIMELY PREFETCHES:          0 LATE PREFETCHES: 0 DROPPED PREFETCHES: 0
ITLB COMMIT LATE PREFETCHES: 0 MISSED OPPORTUNITY: 0 LATE IN PQ: 0 UNCOVERED: 0
ITLB COMMIT LATE MSHR PREFETCHES: 0
ITLB MPKI TOTAL: 0 MSHR LATE: 0 PQ LATE: 0 COMMIT LATE: 0 MISSED OPPORTUNITY: 0 UNCOVERED: 0
ITLB PREFETCHES SAME FILL-ORIGIN LEVEL: 0 DIFFERENT FILL-ORIGIN LEVEL: 0
ITLB AVERAGE MISS LATENCY: -nan cycles
ITLB AVERAGE MISS LATENCY LOAD: -nan cycles
ITLB AVERAGE MISS LATENCY PREFETCH: -nan cycles
ITLB AVERAGE MSHR OCCUPANCY: 0
ITLB MSHR FULL: 0
ITLB RQ	ACCESS:   30179147	FORWARD:          0	MERGED:    5036361	TO_CACHE:   25142786

DTLB TOTAL     ACCESS:   42787143  HIT:   42668414  MISS:     118729  HIT %:    99.7225  MISS %:   0.277488   MPKI: 0.593645
DTLB Test counter:          0
DTLB LOAD TRANSLATION ACCESS:   42787143  HIT:   42668414  MISS:     118729  HIT %:    99.7225  MISS %:   0.277488   MPKI: 0.593645
DTLB PREFETCH  REQUESTED:          0  ISSUED:          0  USEFUL:          0  USELESS:          0
DTLB USEFUL LOAD PREFETCHES:          0 PREFETCH ISSUED TO LOWER LEVEL:          0  ACCURACY: -nan
DTLB TIMELY PREFETCHES:          0 LATE PREFETCHES: 0 DROPPED PREFETCHES: 0
DTLB COMMIT LATE PREFETCHES: 0 MISSED OPPORTUNITY: 0 LATE IN PQ: 0 UNCOVERED: 0
DTLB COMMIT LATE MSHR PREFETCHES: 0
DTLB MPKI TOTAL: 0 MSHR LATE: 0 PQ LATE: 0 COMMIT LATE: 0 MISSED OPPORTUNITY: 0 UNCOVERED: 0
DTLB PREFETCHES SAME FILL-ORIGIN LEVEL: 0 DIFFERENT FILL-ORIGIN LEVEL: 0
DTLB AVERAGE MISS LATENCY: 70.0926 cycles
DTLB AVERAGE MISS LATENCY LOAD: -nan cycles
DTLB AVERAGE MISS LATENCY PREFETCH: -nan cycles
DTLB AVERAGE MSHR OCCUPANCY: 0.0178337
DTLB MSHR FULL: 0.000121718
DTLB RQ	ACCESS:   50268812	FORWARD:          0	MERGED:    7478283	TO_CACHE:   42790529

STLB TOTAL     ACCESS:     118729  HIT:      64121  MISS:      54608  HIT %:    54.0062  MISS %:    45.9938   MPKI: 0.27304
STLB Test counter:          0
STLB LOAD TRANSLATION ACCESS:     118729  HIT:      64121  MISS:      54608  HIT %:    54.0062  MISS %:    45.9938   MPKI: 0.27304
STLB PREFETCH  REQUESTED:          0  ISSUED:          0  USEFUL:          0  USELESS:          0
STLB USEFUL LOAD PREFETCHES:          0 PREFETCH ISSUED TO LOWER LEVEL:          0  ACCURACY: -nan
STLB TIMELY PREFETCHES:          0 LATE PREFETCHES: 0 DROPPED PREFETCHES: 0
STLB COMMIT LATE PREFETCHES: 0 MISSED OPPORTUNITY: 0 LATE IN PQ: 0 UNCOVERED: 0
STLB COMMIT LATE MSHR PREFETCHES: 0
STLB MPKI TOTAL: 0 MSHR LATE: 0 PQ LATE: 0 COMMIT LATE: 0 MISSED OPPORTUNITY: 0 UNCOVERED: 0
STLB PREFETCHES SAME FILL-ORIGIN LEVEL: 0 DIFFERENT FILL-ORIGIN LEVEL: 0
STLB AVERAGE MISS LATENCY: 130.291 cycles
STLB AVERAGE MISS LATENCY LOAD: -nan cycles
STLB AVERAGE MISS LATENCY PREFETCH: -nan cycles
STLB AVERAGE MSHR OCCUPANCY: 0.0375645
STLB MSHR FULL: 0
STLB RQ	ACCESS:     118729	FORWARD:          0	MERGED:          0	TO_CACHE:     118729

STLB Hit, L1D data hit: 0
STLB Hit, L2C data hit: 0
STLB Hit, LLC data hit: 0
STLB Hit, LLC data miss: 0
STLB STLB hints to L2: 0
L1D TOTAL     ACCESS:   49889771  HIT:   46614806  MISS:    3274965  HIT %:    93.4356  MISS %:     6.5644   MPKI: 16.3748
L1D Test counter:          0
L1D LOAD      ACCESS:   40055331  HIT:   36780366  MISS:    3654009  HIT %:    91.8239  MISS %:     8.1761   MPKI: 16.3748
L1D RFO       ACCESS:    9834440  HIT:    9834440  MISS:          0  HIT %:        100  MISS %:          0   MPKI: 0
L1D PREFETCH  REQUESTED:          0  ISSUED:          0  USEFUL:          0  USELESS:          0
L1D USEFUL LOAD PREFETCHES:          0 PREFETCH ISSUED TO LOWER LEVEL:          0  ACCURACY: -nan
L1D TIMELY PREFETCHES:          0 LATE PREFETCHES: 0 DROPPED PREFETCHES: 0
L1D COMMIT LATE PREFETCHES: 0 MISSED OPPORTUNITY: 0 LATE IN PQ: 0 UNCOVERED: 0
L1D COMMIT LATE MSHR PREFETCHES: 0
L1D MPKI TOTAL: 18.27 MSHR LATE: 0 PQ LATE: 0 COMMIT LATE: 0 MISSED OPPORTUNITY: 0 UNCOVERED: 0
L1D PREFETCHES SAME FILL-ORIGIN LEVEL: 0 DIFFERENT FILL-ORIGIN LEVEL: 0
L1D AVERAGE MISS LATENCY: 206.364 cycles
L1D AVERAGE MISS LATENCY LOAD: 206.364 cycles
L1D AVERAGE MISS LATENCY PREFETCH: -nan cycles
L1D AVERAGE MSHR OCCUPANCY: 1.23044
L1D MSHR FULL: 0
L1D RQ	ACCESS:   68339136	FORWARD:          0	MERGED:   27651839	TO_CACHE:   40434370
L1D WQ	ACCESS:    9834442	FORWARD:     252927	MERGED:          0	TO_CACHE:    9834442

L1D UNIQUE REGIONS ACCESSED: 0
L1D REGIONS CONFLICTS: 0
L1D Cross Page Prefetch Requests: 0
L1D Same Page Prefetch Requests: 0
L1D ROI Sum of L1D PQ occupancy: 0
L1D PREFETCHES PUSHED FROM L2C: 0
420d6d: 1
421374: 1
421426: 1
42118f: 3
4210b2: 3
420d00: 6
420c9c: 8
420dd2: 11
421381: 11
42140c: 11
4213d7: 12
421362: 12
421430: 12
420cfb: 12
420962: 12
421354: 12
420f21: 89
420f77: 101
420e7e: 412
420c8a: 471
421140: 691
4210a1: 2116
42112f: 2802
421111: 2806
42117e: 2807
421123: 2807
4210de: 2810
4210d0: 2810
420da6: 5403
420e41: 5424
420c3d: 168399
420d21: 168399
420dfd: 168399
420c7c: 338385
420cdf: 339766
420d5a: 342385
420d1b: 342387
420df7: 342387
420d4c: 342388
420cc0: 342393
420c37: 348000
L1I TOTAL     ACCESS:   30179146  HIT:   30179146  MISS:          0  HIT %:        100  MISS %:          0   MPKI: 0
L1I Test counter:          0
L1I LOAD      ACCESS:   30179146  HIT:   30179146  MISS:          0  HIT %:        100  MISS %:          0   MPKI: 0
L1I PREFETCH  REQUESTED:          0  ISSUED:          0  USEFUL:          0  USELESS:          0
L1I USEFUL LOAD PREFETCHES:          0 PREFETCH ISSUED TO LOWER LEVEL:          0  ACCURACY: -nan
L1I TIMELY PREFETCHES:          0 LATE PREFETCHES: 0 DROPPED PREFETCHES: 0
L1I COMMIT LATE PREFETCHES: 0 MISSED OPPORTUNITY: 0 LATE IN PQ: 0 UNCOVERED: 0
L1I COMMIT LATE MSHR PREFETCHES: 0
L1I MPKI TOTAL: 0 MSHR LATE: 0 PQ LATE: 0 COMMIT LATE: 0 MISSED OPPORTUNITY: 0 UNCOVERED: 0
L1I PREFETCHES SAME FILL-ORIGIN LEVEL: 0 DIFFERENT FILL-ORIGIN LEVEL: 0
L1I AVERAGE MISS LATENCY: -nan cycles
L1I AVERAGE MISS LATENCY LOAD: -nan cycles
L1I AVERAGE MISS LATENCY PREFETCH: -nan cycles
L1I AVERAGE MSHR OCCUPANCY: 0
L1I MSHR FULL: 0
L1I RQ	ACCESS:   46815049	FORWARD:          0	MERGED:   16635902	TO_CACHE:   30179147

BTB TOTAL     ACCESS:    1347105  HIT:    1347102  MISS:          3  HIT %:    99.9998  MISS %:  0.0002227   MPKI: 1.5e-05
BTB Test counter:          0
BTB BRANCH_DIRECT_JUMP	ACCESS:          0  HIT:          0  MISS:          0
BTB BRANCH_INDIRECT	ACCESS:          0  HIT:          0  MISS:          0
BTB BRANCH_CONDITIONAL	ACCESS:    1347105  HIT:    1347102  MISS:          3
BTB BRANCH_DIRECT_CALL	ACCESS:          0  HIT:          0  MISS:          0
BTB BRANCH_INDIRECT_CALL	ACCESS:          0  HIT:          0  MISS:          0
BTB BRANCH_RETURN	ACCESS:          0  HIT:          0  MISS:          0
BTB BRANCH_OTHER ACCESS:          0  HIT:          0  MISS:          0

L2C TOTAL     ACCESS:    4368018  HIT:    1086307  MISS:    3281711  HIT %:    24.8696  MISS %:    75.1304   MPKI: 16.4086
L2C Test counter:          0
L2C LOAD      ACCESS:    3274965  HIT:        287  MISS:    3274678  HIT %: 0.00876345  MISS %:    99.9912   MPKI: 16.3734
L2C DATA LOAD MPKI: 16.3734
L2C INSTRUCTION LOAD MPKI: 0
L2C WRITEBACK ACCESS:    1038440  HIT:    1038433  MISS:          7  HIT %:    99.9993  MISS %: 0.000674088   MPKI: 3.5e-05
L2C LOAD TRANSLATION ACCESS:      54613  HIT:      47587  MISS:       7026  HIT %:    87.1349  MISS %:    12.8651   MPKI: 0.03513
L2C PREFETCH  REQUESTED:          0  ISSUED:          0  USEFUL:          0  USELESS:          0
L2C USEFUL LOAD PREFETCHES:          0 PREFETCH ISSUED TO LOWER LEVEL:          0  ACCURACY: -nan
L2C TIMELY PREFETCHES:          0 LATE PREFETCHES: 0 DROPPED PREFETCHES: 0
L2C COMMIT LATE PREFETCHES: 0 MISSED OPPORTUNITY: 0 LATE IN PQ: 0 UNCOVERED: 0
L2C COMMIT LATE MSHR PREFETCHES: 0
L2C MPKI TOTAL: 16.3734 MSHR LATE: 0 PQ LATE: 0 COMMIT LATE: 0 MISSED OPPORTUNITY: 0 UNCOVERED: 0
L2C PREFETCHES SAME FILL-ORIGIN LEVEL: 0 DIFFERENT FILL-ORIGIN LEVEL: 0
L2C AVERAGE MISS LATENCY: 190.626 cycles
L2C AVERAGE MISS LATENCY LOAD: 190.573 cycles
L2C AVERAGE MISS LATENCY PREFETCH: -nan cycles
L2C AVERAGE MSHR OCCUPANCY: 1.46155
L2C MSHR FULL: 0
L2C RQ	ACCESS:    3329578	FORWARD:          0	MERGED:          0	TO_CACHE:    3329578
L2C WQ	ACCESS:    1038440	FORWARD:          0	MERGED:          0	TO_CACHE:    1038440

L2C Instructions Evicting Data 0
L2C Translations Evicting Data 7022
L2C Data Evicting Data 3267654
L2C Instructions Evicting Instructions 0
L2C Translations Evicting Instructions 0
L2C Data Evicting Instructions 0
L2C Instructions Evicting Translations 0
L2C Translations Evicting Translations 4
L2C Data Evicting Translations 7024
L2C Dense regions hint from L2: 0
420d6d: 1
421374: 1
421426: 1
42118f: 3
4210b2: 3
420d00: 4
420c9c: 8
420dd2: 11
421381: 11
42140c: 11
4213d7: 12
421362: 12
421430: 12
420cfb: 12
420962: 12
421354: 12
420f77: 24
420f21: 33
420c8a: 365
420e7e: 366
421140: 691
4210a1: 2116
42112f: 2802
421111: 2806
42117e: 2807
421123: 2807
4210de: 2810
4210d0: 2810
420da6: 5403
420e41: 5424
420c3d: 168399
420d21: 168399
420dfd: 168399
420c7c: 338385
420cdf: 339766
420d5a: 342385
420d1b: 342387
420df7: 342387
420d4c: 342388
420cc0: 342393
420c37: 348000
PSCL5 TOTAL     ACCESS:      54608  HIT:      54608  MISS:          0  HIT %:        100  MISS %:          0   MPKI: 0
PSCL5 Test counter:          0
PSCL5 LOAD TRANSLATION ACCESS:      54608  HIT:      54608  MISS:          0  HIT %:        100  MISS %:          0   MPKI: 0
PSCL5 PREFETCH  REQUESTED:          0  ISSUED:          0  USEFUL:          0  USELESS:          0
PSCL5 USEFUL LOAD PREFETCHES:          0 PREFETCH ISSUED TO LOWER LEVEL:          0  ACCURACY: -nan
PSCL5 TIMELY PREFETCHES:          0 LATE PREFETCHES: 0 DROPPED PREFETCHES: 0
PSCL5 COMMIT LATE PREFETCHES: 0 MISSED OPPORTUNITY: 0 LATE IN PQ: 0 UNCOVERED: 0
PSCL5 COMMIT LATE MSHR PREFETCHES: 0
PSCL5 MPKI TOTAL: 0 MSHR LATE: 0 PQ LATE: 0 COMMIT LATE: 0 MISSED OPPORTUNITY: 0 UNCOVERED: 0
PSCL5 PREFETCHES SAME FILL-ORIGIN LEVEL: 0 DIFFERENT FILL-ORIGIN LEVEL: 0

PSCL4 TOTAL     ACCESS:      54608  HIT:      54608  MISS:          0  HIT %:        100  MISS %:          0   MPKI: 0
PSCL4 Test counter:          0
PSCL4 LOAD TRANSLATION ACCESS:      54608  HIT:      54608  MISS:          0  HIT %:        100  MISS %:          0   MPKI: 0
PSCL4 PREFETCH  REQUESTED:          0  ISSUED:          0  USEFUL:          0  USELESS:          0
PSCL4 USEFUL LOAD PREFETCHES:          0 PREFETCH ISSUED TO LOWER LEVEL:          0  ACCURACY: -nan
PSCL4 TIMELY PREFETCHES:          0 LATE PREFETCHES: 0 DROPPED PREFETCHES: 0
PSCL4 COMMIT LATE PREFETCHES: 0 MISSED OPPORTUNITY: 0 LATE IN PQ: 0 UNCOVERED: 0
PSCL4 COMMIT LATE MSHR PREFETCHES: 0
PSCL4 MPKI TOTAL: 0 MSHR LATE: 0 PQ LATE: 0 COMMIT LATE: 0 MISSED OPPORTUNITY: 0 UNCOVERED: 0
PSCL4 PREFETCHES SAME FILL-ORIGIN LEVEL: 0 DIFFERENT FILL-ORIGIN LEVEL: 0

PSCL3 TOTAL     ACCESS:      54608  HIT:      54608  MISS:          0  HIT %:        100  MISS %:          0   MPKI: 0
PSCL3 Test counter:          0
PSCL3 LOAD TRANSLATION ACCESS:      54608  HIT:      54608  MISS:          0  HIT %:        100  MISS %:          0   MPKI: 0
PSCL3 PREFETCH  REQUESTED:          0  ISSUED:          0  USEFUL:          0  USELESS:          0
PSCL3 USEFUL LOAD PREFETCHES:          0 PREFETCH ISSUED TO LOWER LEVEL:          0  ACCURACY: -nan
PSCL3 TIMELY PREFETCHES:          0 LATE PREFETCHES: 0 DROPPED PREFETCHES: 0
PSCL3 COMMIT LATE PREFETCHES: 0 MISSED OPPORTUNITY: 0 LATE IN PQ: 0 UNCOVERED: 0
PSCL3 COMMIT LATE MSHR PREFETCHES: 0
PSCL3 MPKI TOTAL: 0 MSHR LATE: 0 PQ LATE: 0 COMMIT LATE: 0 MISSED OPPORTUNITY: 0 UNCOVERED: 0
PSCL3 PREFETCHES SAME FILL-ORIGIN LEVEL: 0 DIFFERENT FILL-ORIGIN LEVEL: 0

PSCL2 TOTAL     ACCESS:      54608  HIT:      54518  MISS:         90  HIT %:    99.8352  MISS %:   0.164811   MPKI: 0.00045
PSCL2 Test counter:          0
PSCL2 LOAD TRANSLATION ACCESS:      54608  HIT:      54518  MISS:         90  HIT %:    99.8352  MISS %:   0.164811   MPKI: 0.00045
PSCL2 PREFETCH  REQUESTED:          0  ISSUED:          0  USEFUL:          0  USELESS:          0
PSCL2 USEFUL LOAD PREFETCHES:          0 PREFETCH ISSUED TO LOWER LEVEL:          0  ACCURACY: -nan
PSCL2 TIMELY PREFETCHES:          0 LATE PREFETCHES: 0 DROPPED PREFETCHES: 0
PSCL2 COMMIT LATE PREFETCHES: 0 MISSED OPPORTUNITY: 0 LATE IN PQ: 0 UNCOVERED: 0
PSCL2 COMMIT LATE MSHR PREFETCHES: 0
PSCL2 MPKI TOTAL: 0 MSHR LATE: 0 PQ LATE: 0 COMMIT LATE: 0 MISSED OPPORTUNITY: 0 UNCOVERED: 0
PSCL2 PREFETCHES SAME FILL-ORIGIN LEVEL: 0 DIFFERENT FILL-ORIGIN LEVEL: 0

LLC TOTAL     ACCESS:    4319928  HIT:    1038256  MISS:    3281672  HIT %:    24.0341  MISS %:    75.9659   MPKI: 16.4084
LLC Test counter:          0
LLC LOAD      ACCESS:    3274678  HIT:         32  MISS:    3274646  HIT %: 0.000977195  MISS %:     99.999   MPKI: 16.3732
LLC WRITEBACK ACCESS:    1038224  HIT:    1038217  MISS:          7  HIT %:    99.9993  MISS %: 0.000674228   MPKI: 3.5e-05
LLC LOAD TRANSLATION ACCESS:       7026  HIT:          7  MISS:       7019  HIT %:  0.0996299  MISS %:    99.9004   MPKI: 0.035095
LLC PREFETCH  REQUESTED:          0  ISSUED:          0  USEFUL:          0  USELESS:          0
LLC USEFUL LOAD PREFETCHES:          0 PREFETCH ISSUED TO LOWER LEVEL:          0  ACCURACY: -nan
LLC TIMELY PREFETCHES:          0 LATE PREFETCHES: 0 DROPPED PREFETCHES: 0
LLC COMMIT LATE PREFETCHES: 0 MISSED OPPORTUNITY: 0 LATE IN PQ: 0 UNCOVERED: 0
LLC COMMIT LATE MSHR PREFETCHES: 0
LLC MPKI TOTAL: 16.3732 MSHR LATE: 0 PQ LATE: 0 COMMIT LATE: 0 MISSED OPPORTUNITY: 0 UNCOVERED: 0
LLC PREFETCHES SAME FILL-ORIGIN LEVEL: 0 DIFFERENT FILL-ORIGIN LEVEL: 0
LLC AVERAGE MISS LATENCY: 160.401 cycles
LLC AVERAGE MISS LATENCY LOAD: 160.346 cycles
LLC AVERAGE MISS LATENCY PREFETCH: -nan cycles
LLC AVERAGE MSHR OCCUPANCY: 1.42886
LLC MSHR FULL: 0
LLC RQ	ACCESS:    3281704	FORWARD:          0	MERGED:          0	TO_CACHE:    3281704
LLC WQ	ACCESS:    1038225	FORWARD:          0	MERGED:          0	TO_CACHE:    1038225

LLC Dense regions hint to LLC: 0
420d6d: 1
421374: 1
421426: 1
42118f: 3
4210b2: 3
420d00: 4
420c9c: 8
420f77: 8
420dd2: 11
421381: 11
42140c: 11
4213d7: 12
421362: 12
421430: 12
420cfb: 12
420962: 12
421354: 12
420f21: 17
420c8a: 365
420e7e: 366
421140: 691
4210a1: 2116
42112f: 2802
421111: 2806
42117e: 2807
421123: 2807
4210de: 2810
4210d0: 2810
420da6: 5403
420e41: 5424
420c3d: 168399
420d21: 168399
420dfd: 168399
420c7c: 338385
420cdf: 339766
420d5a: 342385
420d1b: 342387
420df7: 342387
420d4c: 342388
420cc0: 342393
420c37: 348000

RAW hits: 2406663
Loads Generated: 70745799
Loads sent to L1D: 68339136
Stores Generated: 9834443
Stores sent to L1D: 9834442
Major fault: 0 Minor fault: 54759
Allocated PAGES: 54759
Total Load insts: 85423097
Total Non-spec loads: 2180643
Percentage of speculative loads: 97.4473
L1D response latency: 206.364 cycles
Load retirement latency: 247.622 cycles


DRAM Statistics
 CHANNEL 0
 RQ ROW_BUFFER_HIT:    1069485  ROW_BUFFER_MISS:    2212180
 DBUS_CONGESTED:       3956
 WQ ROW_BUFFER_HIT:     813672  ROW_BUFFER_MISS:     225308  FULL:          0

 AVG_CONGESTED_CYCLE: 5
 All warmup complete: 2
Channel 0 Bank busy for read cycles: 0
Channel 0 Bank busy for write cycles: 0
Channel 0
Rank 0
0banks busy for read cycles: 14651998
0banks busy for write cycles: 139375
1banks busy for read cycles: 108462738
1banks busy for write cycles: 30334834
2banks busy for read cycles: 63593963
2banks busy for write cycles: 33942557
3banks busy for read cycles: 31183047
3banks busy for write cycles: 25438607
4banks busy for read cycles: 10343662
4banks busy for write cycles: 13371680
5banks busy for read cycles: 2404298
5banks busy for write cycles: 4988055
6banks busy for read cycles: 382495
6banks busy for write cycles: 1317445
7banks busy for read cycles: 58333
7banks busy for write cycles: 242360
8banks busy for read cycles: 3339
8banks busy for write cycles: 32053

CPU 0 Branch Prediction Accuracy: 99.9985% MPKI: 0.000105 Average ROB Occupancy at Mispredict: 327.81
Branch types
NOT_BRANCH: 198619161 99.3096%
BRANCH_DIRECT_JUMP: 0 0%
BRANCH_INDIRECT: 0 0%
BRANCH_CONDITIONAL: 1380807 0.690403%
BRANCH_DIRECT_CALL: 0 0%
BRANCH_INDIRECT_CALL: 0 0%
BRANCH_RETURN: 0 0%
BRANCH_OTHER: 0 0%

DRAM PAGES: 1048576
Allocated PAGES: 54759
