
*** ChampSim Multicore Out-of-Order Simulator ***

Warmup Instructions: 50000000
Simulation Instructions: 200000000
Number of CPUs: 1
LLC sets: 2048
LLC ways: 16
Off-chip DRAM Size: 4096 MB Channels: 1 Width: 64-bit Data Rate: 6400 MT/s
CPU 0 runs /home/sumon/secure_berti/Berti_Baseline/../../traces/spec/649.fotonik3d_s-1176B.champsimtrace.xz
.xz
BTB has LRU replacement policy
ITLB has LRU replacement policy
DTLB has LRU replacement policy
STLB has LRU replacement policy
L1I has LRU replacement policy
L1D has LRU replacement policy
L2C has LRU replacement policy
LLC has LRU replacement policy
Heartbeat CPU 0 instructions: 10000000 cycles: 2926110 heartbeat IPC: 3.41751 cumulative IPC: 3.41751 (Simulation time: 0 hr 0 min 33 sec) 
Heartbeat CPU 0 instructions: 20000002 cycles: 5851846 heartbeat IPC: 3.41794 cumulative IPC: 3.41773 (Simulation time: 0 hr 1 min 8 sec) 
Heartbeat CPU 0 instructions: 30000000 cycles: 8777578 heartbeat IPC: 3.41795 cumulative IPC: 3.4178 (Simulation time: 0 hr 1 min 46 sec) 
Heartbeat CPU 0 instructions: 40000003 cycles: 11703311 heartbeat IPC: 3.41795 cumulative IPC: 3.41784 (Simulation time: 0 hr 2 min 26 sec) 
Heartbeat CPU 0 instructions: 50000001 cycles: 14629083 heartbeat IPC: 3.4179 cumulative IPC: 3.41785 (Simulation time: 0 hr 3 min 8 sec) 

Warmup complete CPU 0 instructions: 50000001 cycles: 14629083 (Simulation time: 0 hr 3 min 8 sec) 

Heartbeat CPU 0 instructions: 60000000 cycles: 31735706 heartbeat IPC: 0.584569 cumulative IPC: 0.584569 (Simulation time: 0 hr 4 min 17 sec) 
Heartbeat CPU 0 instructions: 70000001 cycles: 48854860 heartbeat IPC: 0.584141 cumulative IPC: 0.584355 (Simulation time: 0 hr 5 min 26 sec) 
Heartbeat CPU 0 instructions: 80000002 cycles: 65970855 heartbeat IPC: 0.584249 cumulative IPC: 0.58432 (Simulation time: 0 hr 6 min 35 sec) 
Heartbeat CPU 0 instructions: 90000000 cycles: 83084943 heartbeat IPC: 0.584314 cumulative IPC: 0.584318 (Simulation time: 0 hr 7 min 46 sec) 
Heartbeat CPU 0 instructions: 100000000 cycles: 100199925 heartbeat IPC: 0.584283 cumulative IPC: 0.584311 (Simulation time: 0 hr 8 min 55 sec) 
Heartbeat CPU 0 instructions: 110000000 cycles: 117309828 heartbeat IPC: 0.584457 cumulative IPC: 0.584335 (Simulation time: 0 hr 10 min 9 sec) 
Heartbeat CPU 0 instructions: 120000001 cycles: 134424754 heartbeat IPC: 0.584285 cumulative IPC: 0.584328 (Simulation time: 0 hr 11 min 21 sec) 
Heartbeat CPU 0 instructions: 130000003 cycles: 151539521 heartbeat IPC: 0.584291 cumulative IPC: 0.584324 (Simulation time: 0 hr 12 min 31 sec) 
Heartbeat CPU 0 instructions: 140000003 cycles: 168661224 heartbeat IPC: 0.584054 cumulative IPC: 0.584294 (Simulation time: 0 hr 13 min 45 sec) 
Heartbeat CPU 0 instructions: 150000001 cycles: 185772064 heartbeat IPC: 0.584425 cumulative IPC: 0.584307 (Simulation time: 0 hr 15 min 0 sec) 
Heartbeat CPU 0 instructions: 160000003 cycles: 202888576 heartbeat IPC: 0.584231 cumulative IPC: 0.5843 (Simulation time: 0 hr 16 min 13 sec) 
Heartbeat CPU 0 instructions: 170000002 cycles: 220008857 heartbeat IPC: 0.584103 cumulative IPC: 0.584283 (Simulation time: 0 hr 17 min 26 sec) 
Heartbeat CPU 0 instructions: 180000001 cycles: 237116022 heartbeat IPC: 0.58455 cumulative IPC: 0.584304 (Simulation time: 0 hr 19 min 31 sec) 
Heartbeat CPU 0 instructions: 190000001 cycles: 254234466 heartbeat IPC: 0.584165 cumulative IPC: 0.584294 (Simulation time: 0 hr 24 min 4 sec) 
Heartbeat CPU 0 instructions: 200000003 cycles: 271348576 heartbeat IPC: 0.584313 cumulative IPC: 0.584295 (Simulation time: 0 hr 27 min 12 sec) 
Heartbeat CPU 0 instructions: 210000003 cycles: 288467171 heartbeat IPC: 0.58416 cumulative IPC: 0.584287 (Simulation time: 0 hr 29 min 28 sec) 
Heartbeat CPU 0 instructions: 220000000 cycles: 305590554 heartbeat IPC: 0.583997 cumulative IPC: 0.58427 (Simulation time: 0 hr 31 min 46 sec) 
Heartbeat CPU 0 instructions: 230000002 cycles: 322705287 heartbeat IPC: 0.584292 cumulative IPC: 0.584271 (Simulation time: 0 hr 33 min 35 sec) 
Heartbeat CPU 0 instructions: 240000003 cycles: 339818287 heartbeat IPC: 0.584351 cumulative IPC: 0.584275 (Simulation time: 0 hr 35 min 25 sec) 
Heartbeat CPU 0 instructions: 250000000 cycles: 356935395 heartbeat IPC: 0.584211 cumulative IPC: 0.584272 (Simulation time: 0 hr 37 min 4 sec) 
Finished CPU 0 instructions: 200000003 cycles: 342306313 cumulative IPC: 0.584272 (Simulation time: 0 hr 37 min 4 sec) 

ChampSim completed all CPUs

Region of Interest Statistics

CPU 0 cumulative IPC: 0.584272 instructions: 200000003 cycles: 342306313
ITLB TOTAL     ACCESS:   28428401  HIT:   28428401  MISS:          0  HIT %:        100  MISS %:          0   MPKI: 0
ITLB Test counter:          0
ITLB LOAD TRANSLATION ACCESS:   28428401  HIT:   28428401  MISS:          0  HIT %:        100  MISS %:          0   MPKI: 0
ITLB PREFETCH  REQUESTED:          0  ISSUED:          0  USEFUL:          0  USELESS:          0
ITLB USEFUL LOAD PREFETCHES:          0 PREFETCH ISSUED TO LOWER LEVEL:          0  ACCURACY: -nan
ITLB TIMELY PREFETCHES:          0 LATE PREFETCHES: 0 DROPPED PREFETCHES: 0
ITLB COMMIT LATE PREFETCHES: 0 MISSED OPPORTUNITY: 0 LATE IN PQ: 0 UNCOVERED: 0
ITLB COMMIT LATE MSHR PREFETCHES: 0
ITLB MPKI TOTAL: 0 MSHR LATE: 0 PQ LATE: 0 COMMIT LATE: 0 MISSED OPPORTUNITY: 0 UNCOVERED: 0
ITLB PREFETCHES SAME FILL-ORIGIN LEVEL: 0 DIFFERENT FILL-ORIGIN LEVEL: 0
ITLB AVERAGE MISS LATENCY: -nan cycles
ITLB AVERAGE MISS LATENCY LOAD: -nan cycles
ITLB AVERAGE MISS LATENCY PREFETCH: -nan cycles
ITLB AVERAGE MSHR OCCUPANCY: 0
ITLB MSHR FULL: 0
ITLB RQ	ACCESS:   35478365	FORWARD:          0	MERGED:    7049965	TO_CACHE:   28428400

DTLB TOTAL     ACCESS:   26025162  HIT:   25978186  MISS:      46976  HIT %:    99.8195  MISS %:   0.180502   MPKI: 0.23488
DTLB Test counter:          0
DTLB LOAD TRANSLATION ACCESS:   26025162  HIT:   25978186  MISS:      46976  HIT %:    99.8195  MISS %:   0.180502   MPKI: 0.23488
DTLB PREFETCH  REQUESTED:          0  ISSUED:          0  USEFUL:          0  USELESS:          0
DTLB USEFUL LOAD PREFETCHES:          0 PREFETCH ISSUED TO LOWER LEVEL:          0  ACCURACY: -nan
DTLB TIMELY PREFETCHES:          0 LATE PREFETCHES: 0 DROPPED PREFETCHES: 0
DTLB COMMIT LATE PREFETCHES: 0 MISSED OPPORTUNITY: 0 LATE IN PQ: 0 UNCOVERED: 0
DTLB COMMIT LATE MSHR PREFETCHES: 0
DTLB MPKI TOTAL: 0 MSHR LATE: 0 PQ LATE: 0 COMMIT LATE: 0 MISSED OPPORTUNITY: 0 UNCOVERED: 0
DTLB PREFETCHES SAME FILL-ORIGIN LEVEL: 0 DIFFERENT FILL-ORIGIN LEVEL: 0
DTLB AVERAGE MISS LATENCY: 89.2792 cycles
DTLB AVERAGE MISS LATENCY LOAD: -nan cycles
DTLB AVERAGE MISS LATENCY PREFETCH: -nan cycles
DTLB AVERAGE MSHR OCCUPANCY: 0.00417363
DTLB MSHR FULL: 0
DTLB RQ	ACCESS:   39774414	FORWARD:          0	MERGED:   13746722	TO_CACHE:   26027692

STLB TOTAL     ACCESS:      46976  HIT:      19530  MISS:      27446  HIT %:    41.5744  MISS %:    58.4256   MPKI: 0.13723
STLB Test counter:          0
STLB LOAD TRANSLATION ACCESS:      46976  HIT:      19530  MISS:      27446  HIT %:    41.5744  MISS %:    58.4256   MPKI: 0.13723
STLB PREFETCH  REQUESTED:          0  ISSUED:          0  USEFUL:          0  USELESS:          0
STLB USEFUL LOAD PREFETCHES:          0 PREFETCH ISSUED TO LOWER LEVEL:          0  ACCURACY: -nan
STLB TIMELY PREFETCHES:          0 LATE PREFETCHES: 0 DROPPED PREFETCHES: 0
STLB COMMIT LATE PREFETCHES: 0 MISSED OPPORTUNITY: 0 LATE IN PQ: 0 UNCOVERED: 0
STLB COMMIT LATE MSHR PREFETCHES: 0
STLB MPKI TOTAL: 0 MSHR LATE: 0 PQ LATE: 0 COMMIT LATE: 0 MISSED OPPORTUNITY: 0 UNCOVERED: 0
STLB PREFETCHES SAME FILL-ORIGIN LEVEL: 0 DIFFERENT FILL-ORIGIN LEVEL: 0
STLB AVERAGE MISS LATENCY: 137.333 cycles
STLB AVERAGE MISS LATENCY LOAD: -nan cycles
STLB AVERAGE MISS LATENCY PREFETCH: -nan cycles
STLB AVERAGE MSHR OCCUPANCY: 0.00227776
STLB MSHR FULL: 0
STLB RQ	ACCESS:      46976	FORWARD:          0	MERGED:          0	TO_CACHE:      46976

STLB Hit, L1D data hit: 0
STLB Hit, L2C data hit: 0
STLB Hit, LLC data hit: 0
STLB Hit, LLC data miss: 0
STLB STLB hints to L2: 0
L1D TOTAL     ACCESS:   37885852  HIT:   35239103  MISS:    2646749  HIT %:    93.0139  MISS %:    6.98611   MPKI: 13.2337
L1D Test counter:          0
L1D LOAD      ACCESS:   23850555  HIT:   21206872  MISS:    4526444  HIT %:    88.9156  MISS %:    11.0844   MPKI: 13.2184
L1D RFO       ACCESS:   14035297  HIT:   14032231  MISS:       3066  HIT %:    99.9782  MISS %:  0.0218449   MPKI: 0.01533
L1D PREFETCH  REQUESTED:          0  ISSUED:          0  USEFUL:          0  USELESS:          0
L1D USEFUL LOAD PREFETCHES:          0 PREFETCH ISSUED TO LOWER LEVEL:          0  ACCURACY: -nan
L1D TIMELY PREFETCHES:          0 LATE PREFETCHES: 0 DROPPED PREFETCHES: 0
L1D COMMIT LATE PREFETCHES: 0 MISSED OPPORTUNITY: 0 LATE IN PQ: 0 UNCOVERED: 0
L1D COMMIT LATE MSHR PREFETCHES: 0
L1D MPKI TOTAL: 22.6322 MSHR LATE: 0 PQ LATE: 0 COMMIT LATE: 0 MISSED OPPORTUNITY: 0 UNCOVERED: 0
L1D PREFETCHES SAME FILL-ORIGIN LEVEL: 0 DIFFERENT FILL-ORIGIN LEVEL: 0
L1D AVERAGE MISS LATENCY: 147.489 cycles
L1D AVERAGE MISS LATENCY LOAD: 147.642 cycles
L1D AVERAGE MISS LATENCY PREFETCH: -nan cycles
L1D AVERAGE MSHR OCCUPANCY: 0.611828
L1D MSHR FULL: 0
L1D RQ	ACCESS:   70165733	FORWARD:          0	MERGED:   44431768	TO_CACHE:   25733316
L1D WQ	ACCESS:   14041098	FORWARD:        649	MERGED:          0	TO_CACHE:   14041098

L1D UNIQUE REGIONS ACCESSED: 0
L1D REGIONS CONFLICTS: 0
L1D Cross Page Prefetch Requests: 0
L1D Same Page Prefetch Requests: 0
L1D ROI Sum of L1D PQ occupancy: 0
L1D PREFETCHES PUSHED FROM L2C: 0
405c2a: 54
40452b: 55
404533: 55
404bb2: 55
405d70: 79
404b43: 137
405d6a: 359
405c30: 384
404a26: 438
404375: 438
404561: 438
404a74: 438
405bdd: 438
405b8e: 438
404b33: 438
404ba3: 438
404bb7: 438
404580: 438
404bfc: 438
40450c: 438
4043c6: 438
405bd6: 438
404552: 438
405ac3: 438
404578: 438
405cd4: 438
405b0d: 438
405acd: 438
405d1d: 438
405e1a: 438
405bc0: 438
405d16: 438
40451c: 438
405ce0: 438
404be8: 438
405d00: 438
405b23: 438
405df2: 184935
405cb2: 199939
405d32: 438000
405bf2: 438747
405cac: 676898
405dec: 691284
L1I TOTAL     ACCESS:   35478365  HIT:   35478365  MISS:          0  HIT %:        100  MISS %:          0   MPKI: 0
L1I Test counter:          0
L1I LOAD      ACCESS:   35478365  HIT:   35478365  MISS:          0  HIT %:        100  MISS %:          0   MPKI: 0
L1I PREFETCH  REQUESTED:          0  ISSUED:          0  USEFUL:          0  USELESS:          0
L1I USEFUL LOAD PREFETCHES:          0 PREFETCH ISSUED TO LOWER LEVEL:          0  ACCURACY: -nan
L1I TIMELY PREFETCHES:          0 LATE PREFETCHES: 0 DROPPED PREFETCHES: 0
L1I COMMIT LATE PREFETCHES: 0 MISSED OPPORTUNITY: 0 LATE IN PQ: 0 UNCOVERED: 0
L1I COMMIT LATE MSHR PREFETCHES: 0
L1I MPKI TOTAL: 0 MSHR LATE: 0 PQ LATE: 0 COMMIT LATE: 0 MISSED OPPORTUNITY: 0 UNCOVERED: 0
L1I PREFETCHES SAME FILL-ORIGIN LEVEL: 0 DIFFERENT FILL-ORIGIN LEVEL: 0
L1I AVERAGE MISS LATENCY: -nan cycles
L1I AVERAGE MISS LATENCY LOAD: -nan cycles
L1I AVERAGE MISS LATENCY PREFETCH: -nan cycles
L1I AVERAGE MSHR OCCUPANCY: 0
L1I MSHR FULL: 0
L1I RQ	ACCESS:   48759214	FORWARD:          0	MERGED:   13280849	TO_CACHE:   35478365

BTB TOTAL     ACCESS:    3509179  HIT:    3509170  MISS:          9  HIT %:    99.9997  MISS %: 0.00025647   MPKI: 4.5e-05
BTB Test counter:          0
BTB BRANCH_DIRECT_JUMP	ACCESS:        876  HIT:        874  MISS:          2
BTB BRANCH_INDIRECT	ACCESS:          0  HIT:          0  MISS:          0
BTB BRANCH_CONDITIONAL	ACCESS:    3506551  HIT:    3506548  MISS:          3
BTB BRANCH_DIRECT_CALL	ACCESS:        876  HIT:        874  MISS:          2
BTB BRANCH_INDIRECT_CALL	ACCESS:          0  HIT:          0  MISS:          0
BTB BRANCH_RETURN	ACCESS:        876  HIT:        874  MISS:          2
BTB BRANCH_OTHER ACCESS:          0  HIT:          0  MISS:          0

L2C TOTAL     ACCESS:    4431188  HIT:    2672771  MISS:    1758417  HIT %:    60.3173  MISS %:    39.6827   MPKI: 8.79208
L2C Test counter:          0
L2C LOAD      ACCESS:    2643683  HIT:     888823  MISS:    1754861  HIT %:    33.6206  MISS %:    66.3794   MPKI: 8.7743
L2C DATA LOAD MPKI: 8.7743
L2C INSTRUCTION LOAD MPKI: 0
L2C RFO       ACCESS:       3066  HIT:       3048  MISS:         18  HIT %:    99.4129  MISS %:   0.587084   MPKI: 9e-05
L2C WRITEBACK ACCESS:    1756985  HIT:    1756985  MISS:          0  HIT %:        100  MISS %:          0   MPKI: 0
L2C LOAD TRANSLATION ACCESS:      27454  HIT:      23915  MISS:       3539  HIT %:    87.1093  MISS %:    12.8907   MPKI: 0.017695
L2C PREFETCH  REQUESTED:          0  ISSUED:          0  USEFUL:          0  USELESS:          0
L2C USEFUL LOAD PREFETCHES:          0 PREFETCH ISSUED TO LOWER LEVEL:          0  ACCURACY: -nan
L2C TIMELY PREFETCHES:          0 LATE PREFETCHES: 0 DROPPED PREFETCHES: 0
L2C COMMIT LATE PREFETCHES: 0 MISSED OPPORTUNITY: 0 LATE IN PQ: 0 UNCOVERED: 0
L2C COMMIT LATE MSHR PREFETCHES: 0
L2C MPKI TOTAL: 8.7743 MSHR LATE: 0 PQ LATE: 0 COMMIT LATE: 0 MISSED OPPORTUNITY: 0 UNCOVERED: 0
L2C PREFETCHES SAME FILL-ORIGIN LEVEL: 0 DIFFERENT FILL-ORIGIN LEVEL: 0
L2C AVERAGE MISS LATENCY: 199.707 cycles
L2C AVERAGE MISS LATENCY LOAD: 199.702 cycles
L2C AVERAGE MISS LATENCY PREFETCH: -nan cycles
L2C AVERAGE MSHR OCCUPANCY: 0.384551
L2C MSHR FULL: 0
L2C RQ	ACCESS:    2674204	FORWARD:          0	MERGED:          0	TO_CACHE:    2674204
L2C WQ	ACCESS:    1756985	FORWARD:          0	MERGED:          0	TO_CACHE:    1756985

L2C Instructions Evicting Data 0
L2C Translations Evicting Data 3531
L2C Data Evicting Data 1751344
L2C Instructions Evicting Instructions 0
L2C Translations Evicting Instructions 0
L2C Data Evicting Instructions 0
L2C Instructions Evicting Translations 0
L2C Translations Evicting Translations 8
L2C Data Evicting Translations 3534
L2C Dense regions hint from L2: 0
404375: 1
404a26: 2
405ac3: 2
405bdd: 3
405b23: 3
4043c6: 3
405e1a: 3
405bd6: 3
405b0d: 3
405d00: 4
405d1d: 4
405acd: 4
405d16: 4
404a74: 4
405bc0: 4
404ba3: 10
40451c: 13
40450c: 13
40452b: 55
404bb2: 55
404533: 55
404b33: 61
404580: 65
404561: 68
404be8: 68
404bfc: 69
404552: 80
404578: 85
404b43: 137
405d32: 386
405bf2: 537
405df2: 184935
405cb2: 199939
405cac: 676898
405dec: 691284
PSCL5 TOTAL     ACCESS:      27446  HIT:      27446  MISS:          0  HIT %:        100  MISS %:          0   MPKI: 0
PSCL5 Test counter:          0
PSCL5 LOAD TRANSLATION ACCESS:      27446  HIT:      27446  MISS:          0  HIT %:        100  MISS %:          0   MPKI: 0
PSCL5 PREFETCH  REQUESTED:          0  ISSUED:          0  USEFUL:          0  USELESS:          0
PSCL5 USEFUL LOAD PREFETCHES:          0 PREFETCH ISSUED TO LOWER LEVEL:          0  ACCURACY: -nan
PSCL5 TIMELY PREFETCHES:          0 LATE PREFETCHES: 0 DROPPED PREFETCHES: 0
PSCL5 COMMIT LATE PREFETCHES: 0 MISSED OPPORTUNITY: 0 LATE IN PQ: 0 UNCOVERED: 0
PSCL5 COMMIT LATE MSHR PREFETCHES: 0
PSCL5 MPKI TOTAL: 0 MSHR LATE: 0 PQ LATE: 0 COMMIT LATE: 0 MISSED OPPORTUNITY: 0 UNCOVERED: 0
PSCL5 PREFETCHES SAME FILL-ORIGIN LEVEL: 0 DIFFERENT FILL-ORIGIN LEVEL: 0

PSCL4 TOTAL     ACCESS:      27446  HIT:      27446  MISS:          0  HIT %:        100  MISS %:          0   MPKI: 0
PSCL4 Test counter:          0
PSCL4 LOAD TRANSLATION ACCESS:      27446  HIT:      27446  MISS:          0  HIT %:        100  MISS %:          0   MPKI: 0
PSCL4 PREFETCH  REQUESTED:          0  ISSUED:          0  USEFUL:          0  USELESS:          0
PSCL4 USEFUL LOAD PREFETCHES:          0 PREFETCH ISSUED TO LOWER LEVEL:          0  ACCURACY: -nan
PSCL4 TIMELY PREFETCHES:          0 LATE PREFETCHES: 0 DROPPED PREFETCHES: 0
PSCL4 COMMIT LATE PREFETCHES: 0 MISSED OPPORTUNITY: 0 LATE IN PQ: 0 UNCOVERED: 0
PSCL4 COMMIT LATE MSHR PREFETCHES: 0
PSCL4 MPKI TOTAL: 0 MSHR LATE: 0 PQ LATE: 0 COMMIT LATE: 0 MISSED OPPORTUNITY: 0 UNCOVERED: 0
PSCL4 PREFETCHES SAME FILL-ORIGIN LEVEL: 0 DIFFERENT FILL-ORIGIN LEVEL: 0

PSCL3 TOTAL     ACCESS:      27383  HIT:      27378  MISS:          5  HIT %:    99.9817  MISS %:  0.0182595   MPKI: 2.5e-05
PSCL3 Test counter:          0
PSCL3 LOAD TRANSLATION ACCESS:      27383  HIT:      27378  MISS:          5  HIT %:    99.9817  MISS %:  0.0182595   MPKI: 2.5e-05
PSCL3 PREFETCH  REQUESTED:          0  ISSUED:          0  USEFUL:          0  USELESS:          0
PSCL3 USEFUL LOAD PREFETCHES:          0 PREFETCH ISSUED TO LOWER LEVEL:          0  ACCURACY: -nan
PSCL3 TIMELY PREFETCHES:          0 LATE PREFETCHES: 0 DROPPED PREFETCHES: 0
PSCL3 COMMIT LATE PREFETCHES: 0 MISSED OPPORTUNITY: 0 LATE IN PQ: 0 UNCOVERED: 0
PSCL3 COMMIT LATE MSHR PREFETCHES: 0
PSCL3 MPKI TOTAL: 0 MSHR LATE: 0 PQ LATE: 0 COMMIT LATE: 0 MISSED OPPORTUNITY: 0 UNCOVERED: 0
PSCL3 PREFETCHES SAME FILL-ORIGIN LEVEL: 0 DIFFERENT FILL-ORIGIN LEVEL: 0

PSCL2 TOTAL     ACCESS:      27446  HIT:      27353  MISS:         93  HIT %:    99.6612  MISS %:   0.338847   MPKI: 0.000465
PSCL2 Test counter:          0
PSCL2 LOAD TRANSLATION ACCESS:      27446  HIT:      27353  MISS:         93  HIT %:    99.6612  MISS %:   0.338847   MPKI: 0.000465
PSCL2 PREFETCH  REQUESTED:          0  ISSUED:          0  USEFUL:          0  USELESS:          0
PSCL2 USEFUL LOAD PREFETCHES:          0 PREFETCH ISSUED TO LOWER LEVEL:          0  ACCURACY: -nan
PSCL2 TIMELY PREFETCHES:          0 LATE PREFETCHES: 0 DROPPED PREFETCHES: 0
PSCL2 COMMIT LATE PREFETCHES: 0 MISSED OPPORTUNITY: 0 LATE IN PQ: 0 UNCOVERED: 0
PSCL2 COMMIT LATE MSHR PREFETCHES: 0
PSCL2 MPKI TOTAL: 0 MSHR LATE: 0 PQ LATE: 0 COMMIT LATE: 0 MISSED OPPORTUNITY: 0 UNCOVERED: 0
PSCL2 PREFETCHES SAME FILL-ORIGIN LEVEL: 0 DIFFERENT FILL-ORIGIN LEVEL: 0

LLC TOTAL     ACCESS:    3511488  HIT:    1753198  MISS:    1758290  HIT %:    49.9275  MISS %:    50.0725   MPKI: 8.79145
LLC Test counter:          0
LLC LOAD      ACCESS:    1754860  HIT:        127  MISS:    1754734  HIT %: 0.00723704  MISS %:    99.9928   MPKI: 8.77366
LLC RFO       ACCESS:         18  HIT:         18  MISS:          0  HIT %:        100  MISS %:          0   MPKI: 0
LLC WRITEBACK ACCESS:    1753071  HIT:    1753053  MISS:         18  HIT %:     99.999  MISS %: 0.00102677   MPKI: 9e-05
LLC LOAD TRANSLATION ACCESS:       3539  HIT:          0  MISS:       3539  HIT %:          0  MISS %:        100   MPKI: 0.017695
LLC PREFETCH  REQUESTED:          0  ISSUED:          0  USEFUL:          0  USELESS:          0
LLC USEFUL LOAD PREFETCHES:          0 PREFETCH ISSUED TO LOWER LEVEL:          0  ACCURACY: -nan
LLC TIMELY PREFETCHES:          0 LATE PREFETCHES: 0 DROPPED PREFETCHES: 0
LLC COMMIT LATE PREFETCHES: 0 MISSED OPPORTUNITY: 0 LATE IN PQ: 0 UNCOVERED: 0
LLC COMMIT LATE MSHR PREFETCHES: 0
LLC MPKI TOTAL: 8.77367 MSHR LATE: 0 PQ LATE: 0 COMMIT LATE: 0 MISSED OPPORTUNITY: 0 UNCOVERED: 0
LLC PREFETCHES SAME FILL-ORIGIN LEVEL: 0 DIFFERENT FILL-ORIGIN LEVEL: 0
LLC AVERAGE MISS LATENCY: 169.716 cycles
LLC AVERAGE MISS LATENCY LOAD: 169.71 cycles
LLC AVERAGE MISS LATENCY PREFETCH: -nan cycles
LLC AVERAGE MSHR OCCUPANCY: 0.354938
LLC MSHR FULL: 0
LLC RQ	ACCESS:    1758418	FORWARD:          0	MERGED:          0	TO_CACHE:    1758418
LLC WQ	ACCESS:    1753071	FORWARD:          0	MERGED:          0	TO_CACHE:    1753071

LLC Dense regions hint to LLC: 0
404375: 1
404a26: 2
405ac3: 2
4043c6: 2
405bdd: 3
405b23: 3
405d00: 3
404a74: 3
405e1a: 3
405bd6: 3
405b0d: 3
405d1d: 4
405acd: 4
405d16: 4
405bc0: 4
404ba3: 9
40451c: 9
40450c: 9
404b33: 55
404bb2: 55
40452b: 55
404533: 55
404578: 62
404580: 63
404561: 63
404552: 63
404be8: 64
404bfc: 64
404b43: 137
405d32: 369
405bf2: 501
405df2: 184935
405cb2: 199939
405cac: 676898
405dec: 691284

RAW hits: 3390
Loads Generated: 70169127
Loads sent to L1D: 70165733
Stores Generated: 14041094
Stores sent to L1D: 14041098
Major fault: 0 Minor fault: 34498
Allocated PAGES: 34498
Total Load insts: 87706810
Total Non-spec loads: 3721191
Percentage of speculative loads: 95.7572
L1D response latency: 147.642 cycles
Load retirement latency: 198.789 cycles


DRAM Statistics
 CHANNEL 0
 RQ ROW_BUFFER_HIT:       5287  ROW_BUFFER_MISS:    1752985
 DBUS_CONGESTED:        325
 WQ ROW_BUFFER_HIT:    1592683  ROW_BUFFER_MISS:     160288  FULL:          0

 AVG_CONGESTED_CYCLE: 6
 All warmup complete: 2
Channel 0 Bank busy for read cycles: 0
Channel 0 Bank busy for write cycles: 0
Channel 0
Rank 0
0banks busy for read cycles: 2688997
0banks busy for write cycles: 18382
1banks busy for read cycles: 139095775
1banks busy for write cycles: 9668283
2banks busy for read cycles: 62055885
2banks busy for write cycles: 54501665
3banks busy for read cycles: 1593
3banks busy for write cycles: 52524615
4banks busy for read cycles: 365
4banks busy for write cycles: 12211767
5banks busy for read cycles: 100
5banks busy for write cycles: 8492917
6banks busy for read cycles: 0
6banks busy for write cycles: 877866
7banks busy for read cycles: 0
7banks busy for write cycles: 163627
8banks busy for read cycles: 0
8banks busy for write cycles: 4477

CPU 0 Branch Prediction Accuracy: 99.9751% MPKI: 0.00438 Average ROB Occupancy at Mispredict: 313.074
Branch types
NOT_BRANCH: 196487742 98.2439%
BRANCH_DIRECT_JUMP: 876 0.000438%
BRANCH_INDIRECT: 0 0%
BRANCH_CONDITIONAL: 3509617 1.75481%
BRANCH_DIRECT_CALL: 876 0.000438%
BRANCH_INDIRECT_CALL: 0 0%
BRANCH_RETURN: 876 0.000438%
BRANCH_OTHER: 0 0%

DRAM PAGES: 1048576
Allocated PAGES: 34498
