
*** ChampSim Multicore Out-of-Order Simulator ***

Warmup Instructions: 50000000
Simulation Instructions: 200000000
Number of CPUs: 1
LLC sets: 2048
LLC ways: 16
Off-chip DRAM Size: 4096 MB Channels: 1 Width: 64-bit Data Rate: 6400 MT/s
CPU 0 runs /home/sumon/secure_berti/Berti_Baseline/../../traces/spec/654.roms_s-293B.champsimtrace.xz
.xz
BTB has LRU replacement policy
ITLB has LRU replacement policy
DTLB has LRU replacement policy
STLB has LRU replacement policy
L1I has LRU replacement policy
L1D has LRU replacement policy
L2C has LRU replacement policy
LLC has LRU replacement policy
Heartbeat CPU 0 instructions: 10000001 cycles: 3119695 heartbeat IPC: 3.20544 cumulative IPC: 3.20544 (Simulation time: 0 hr 0 min 34 sec) 
Heartbeat CPU 0 instructions: 20000003 cycles: 6306724 heartbeat IPC: 3.13772 cumulative IPC: 3.17122 (Simulation time: 0 hr 1 min 8 sec) 
Heartbeat CPU 0 instructions: 30000000 cycles: 9426358 heartbeat IPC: 3.2055 cumulative IPC: 3.18257 (Simulation time: 0 hr 1 min 40 sec) 
Heartbeat CPU 0 instructions: 40000002 cycles: 12613383 heartbeat IPC: 3.13772 cumulative IPC: 3.17124 (Simulation time: 0 hr 2 min 13 sec) 
Heartbeat CPU 0 instructions: 50000003 cycles: 15732916 heartbeat IPC: 3.20561 cumulative IPC: 3.17805 (Simulation time: 0 hr 2 min 45 sec) 

Warmup complete CPU 0 instructions: 50000003 cycles: 15732916 (Simulation time: 0 hr 2 min 45 sec) 

Heartbeat CPU 0 instructions: 60000002 cycles: 27741266 heartbeat IPC: 0.832754 cumulative IPC: 0.832754 (Simulation time: 0 hr 3 min 33 sec) 
Heartbeat CPU 0 instructions: 70000003 cycles: 38372582 heartbeat IPC: 0.940617 cumulative IPC: 0.883405 (Simulation time: 0 hr 4 min 18 sec) 
Heartbeat CPU 0 instructions: 80000002 cycles: 50211589 heartbeat IPC: 0.844665 cumulative IPC: 0.870103 (Simulation time: 0 hr 5 min 6 sec) 
Heartbeat CPU 0 instructions: 90000000 cycles: 61126128 heartbeat IPC: 0.916209 cumulative IPC: 0.881189 (Simulation time: 0 hr 5 min 52 sec) 
Heartbeat CPU 0 instructions: 100000002 cycles: 72629672 heartbeat IPC: 0.869298 cumulative IPC: 0.878785 (Simulation time: 0 hr 6 min 39 sec) 
Heartbeat CPU 0 instructions: 110000000 cycles: 83840029 heartbeat IPC: 0.892032 cumulative IPC: 0.880965 (Simulation time: 0 hr 7 min 31 sec) 
Heartbeat CPU 0 instructions: 120000000 cycles: 94708093 heartbeat IPC: 0.920127 cumulative IPC: 0.886354 (Simulation time: 0 hr 8 min 22 sec) 
Heartbeat CPU 0 instructions: 130000000 cycles: 107819828 heartbeat IPC: 0.762676 cumulative IPC: 0.868744 (Simulation time: 0 hr 9 min 13 sec) 
Heartbeat CPU 0 instructions: 140000003 cycles: 121742643 heartbeat IPC: 0.718246 cumulative IPC: 0.848979 (Simulation time: 0 hr 10 min 12 sec) 
Heartbeat CPU 0 instructions: 150000000 cycles: 135343563 heartbeat IPC: 0.735244 cumulative IPC: 0.836046 (Simulation time: 0 hr 11 min 15 sec) 
Heartbeat CPU 0 instructions: 160000003 cycles: 148956387 heartbeat IPC: 0.734602 cumulative IPC: 0.82568 (Simulation time: 0 hr 12 min 16 sec) 
Heartbeat CPU 0 instructions: 170000002 cycles: 162614763 heartbeat IPC: 0.732151 cumulative IPC: 0.816983 (Simulation time: 0 hr 13 min 23 sec) 
Heartbeat CPU 0 instructions: 180000000 cycles: 176210586 heartbeat IPC: 0.73552 cumulative IPC: 0.810082 (Simulation time: 0 hr 14 min 24 sec) 
Heartbeat CPU 0 instructions: 190000002 cycles: 189815577 heartbeat IPC: 0.735025 cumulative IPC: 0.804216 (Simulation time: 0 hr 15 min 36 sec) 
Heartbeat CPU 0 instructions: 200000000 cycles: 203448884 heartbeat IPC: 0.733498 cumulative IPC: 0.79908 (Simulation time: 0 hr 16 min 47 sec) 
Heartbeat CPU 0 instructions: 210000000 cycles: 216996212 heartbeat IPC: 0.738153 cumulative IPC: 0.794978 (Simulation time: 0 hr 18 min 2 sec) 
Heartbeat CPU 0 instructions: 220000000 cycles: 230607531 heartbeat IPC: 0.734683 cumulative IPC: 0.791159 (Simulation time: 0 hr 19 min 57 sec) 
Heartbeat CPU 0 instructions: 230000000 cycles: 244319042 heartbeat IPC: 0.729314 cumulative IPC: 0.787449 (Simulation time: 0 hr 22 min 35 sec) 
Heartbeat CPU 0 instructions: 240000000 cycles: 257965828 heartbeat IPC: 0.732773 cumulative IPC: 0.784369 (Simulation time: 0 hr 24 min 46 sec) 
Heartbeat CPU 0 instructions: 250000001 cycles: 271556610 heartbeat IPC: 0.735793 cumulative IPC: 0.781788 (Simulation time: 0 hr 26 min 35 sec) 
Finished CPU 0 instructions: 200000002 cycles: 255823695 cumulative IPC: 0.781788 (Simulation time: 0 hr 26 min 35 sec) 

ChampSim completed all CPUs

Region of Interest Statistics

CPU 0 cumulative IPC: 0.781788 instructions: 200000002 cycles: 255823695
ITLB TOTAL     ACCESS:   28936630  HIT:   28936614  MISS:         16  HIT %:    99.9999  MISS %: 5.52932e-05   MPKI: 8e-05
ITLB Test counter:          0
ITLB LOAD TRANSLATION ACCESS:   28936630  HIT:   28936614  MISS:         16  HIT %:    99.9999  MISS %: 5.52932e-05   MPKI: 8e-05
ITLB PREFETCH  REQUESTED:          0  ISSUED:          0  USEFUL:          0  USELESS:          0
ITLB USEFUL LOAD PREFETCHES:          0 PREFETCH ISSUED TO LOWER LEVEL:          0  ACCURACY: -nan
ITLB TIMELY PREFETCHES:          0 LATE PREFETCHES: 0 DROPPED PREFETCHES: 0
ITLB COMMIT LATE PREFETCHES: 0 MISSED OPPORTUNITY: 0 LATE IN PQ: 0 UNCOVERED: 0
ITLB COMMIT LATE MSHR PREFETCHES: 0
ITLB MPKI TOTAL: 0 MSHR LATE: 0 PQ LATE: 0 COMMIT LATE: 0 MISSED OPPORTUNITY: 0 UNCOVERED: 0
ITLB PREFETCHES SAME FILL-ORIGIN LEVEL: 0 DIFFERENT FILL-ORIGIN LEVEL: 0
ITLB AVERAGE MISS LATENCY: 240.125 cycles
ITLB AVERAGE MISS LATENCY LOAD: -nan cycles
ITLB AVERAGE MISS LATENCY PREFETCH: -nan cycles
ITLB AVERAGE MSHR OCCUPANCY: 1.03675e-07
ITLB MSHR FULL: 0
ITLB RQ	ACCESS:   35744175	FORWARD:          0	MERGED:    6807543	TO_CACHE:   28936632

DTLB TOTAL     ACCESS:   49560855  HIT:   49487020  MISS:      73835  HIT %:     99.851  MISS %:   0.148978   MPKI: 0.369175
DTLB Test counter:          0
DTLB LOAD TRANSLATION ACCESS:   49560855  HIT:   49487020  MISS:      73835  HIT %:     99.851  MISS %:   0.148978   MPKI: 0.369175
DTLB PREFETCH  REQUESTED:          0  ISSUED:          0  USEFUL:          0  USELESS:          0
DTLB USEFUL LOAD PREFETCHES:          0 PREFETCH ISSUED TO LOWER LEVEL:          0  ACCURACY: -nan
DTLB TIMELY PREFETCHES:          0 LATE PREFETCHES: 0 DROPPED PREFETCHES: 0
DTLB COMMIT LATE PREFETCHES: 0 MISSED OPPORTUNITY: 0 LATE IN PQ: 0 UNCOVERED: 0
DTLB COMMIT LATE MSHR PREFETCHES: 0
DTLB MPKI TOTAL: 0 MSHR LATE: 0 PQ LATE: 0 COMMIT LATE: 0 MISSED OPPORTUNITY: 0 UNCOVERED: 0
DTLB PREFETCHES SAME FILL-ORIGIN LEVEL: 0 DIFFERENT FILL-ORIGIN LEVEL: 0
DTLB AVERAGE MISS LATENCY: 295.472 cycles
DTLB AVERAGE MISS LATENCY LOAD: -nan cycles
DTLB AVERAGE MISS LATENCY PREFETCH: -nan cycles
DTLB AVERAGE MSHR OCCUPANCY: 0.0159461
DTLB MSHR FULL: 2.01565e-08
DTLB RQ	ACCESS:   55853271	FORWARD:          0	MERGED:    6241431	TO_CACHE:   49611840

STLB TOTAL     ACCESS:      73851  HIT:      26011  MISS:      47840  HIT %:    35.2209  MISS %:    64.7791   MPKI: 0.2392
STLB Test counter:          0
STLB LOAD TRANSLATION ACCESS:      73851  HIT:      26011  MISS:      47840  HIT %:    35.2209  MISS %:    64.7791   MPKI: 0.2392
STLB PREFETCH  REQUESTED:          0  ISSUED:          0  USEFUL:          0  USELESS:          0
STLB USEFUL LOAD PREFETCHES:          0 PREFETCH ISSUED TO LOWER LEVEL:          0  ACCURACY: -nan
STLB TIMELY PREFETCHES:          0 LATE PREFETCHES: 0 DROPPED PREFETCHES: 0
STLB COMMIT LATE PREFETCHES: 0 MISSED OPPORTUNITY: 0 LATE IN PQ: 0 UNCOVERED: 0
STLB COMMIT LATE MSHR PREFETCHES: 0
STLB MPKI TOTAL: 0 MSHR LATE: 0 PQ LATE: 0 COMMIT LATE: 0 MISSED OPPORTUNITY: 0 UNCOVERED: 0
STLB PREFETCHES SAME FILL-ORIGIN LEVEL: 0 DIFFERENT FILL-ORIGIN LEVEL: 0
STLB AVERAGE MISS LATENCY: 440.892 cycles
STLB AVERAGE MISS LATENCY LOAD: -nan cycles
STLB AVERAGE MISS LATENCY PREFETCH: -nan cycles
STLB AVERAGE MSHR OCCUPANCY: 0.941247
STLB MSHR FULL: 0
STLB RQ	ACCESS:      73851	FORWARD:          0	MERGED:          0	TO_CACHE:      73851

STLB Hit, L1D data hit: 0
STLB Hit, L2C data hit: 0
STLB Hit, LLC data hit: 0
STLB Hit, LLC data miss: 0
STLB STLB hints to L2: 0
L1D TOTAL     ACCESS:   52904772  HIT:   50385507  MISS:    2519265  HIT %:    95.2381  MISS %:    4.76189   MPKI: 12.5963
L1D Test counter:          0
L1D LOAD      ACCESS:   42224984  HIT:   40110145  MISS:    4334684  HIT %:    94.9915  MISS %:     5.0085   MPKI: 10.5742
L1D RFO       ACCESS:   10679788  HIT:   10275362  MISS:     404426  HIT %:    96.2132  MISS %:    3.78684   MPKI: 2.02213
L1D PREFETCH  REQUESTED:          0  ISSUED:          0  USEFUL:          0  USELESS:          0
L1D USEFUL LOAD PREFETCHES:          0 PREFETCH ISSUED TO LOWER LEVEL:          0  ACCURACY: -nan
L1D TIMELY PREFETCHES:          0 LATE PREFETCHES: 0 DROPPED PREFETCHES: 0
L1D COMMIT LATE PREFETCHES: 0 MISSED OPPORTUNITY: 0 LATE IN PQ: 0 UNCOVERED: 0
L1D COMMIT LATE MSHR PREFETCHES: 0
L1D MPKI TOTAL: 21.6734 MSHR LATE: 0 PQ LATE: 0 COMMIT LATE: 0 MISSED OPPORTUNITY: 0 UNCOVERED: 0
L1D PREFETCHES SAME FILL-ORIGIN LEVEL: 0 DIFFERENT FILL-ORIGIN LEVEL: 0
L1D AVERAGE MISS LATENCY: 146.245 cycles
L1D AVERAGE MISS LATENCY LOAD: 140.143 cycles
L1D AVERAGE MISS LATENCY PREFETCH: -nan cycles
L1D AVERAGE MSHR OCCUPANCY: 1.08976
L1D MSHR FULL: 0.000188762
L1D RQ	ACCESS:   72387544	FORWARD:          0	MERGED:   27797948	TO_CACHE:   44444835
L1D WQ	ACCESS:   11408461	FORWARD:     144761	MERGED:         25	TO_CACHE:   11408436

L1D UNIQUE REGIONS ACCESSED: 0
L1D REGIONS CONFLICTS: 0
L1D Cross Page Prefetch Requests: 0
L1D Same Page Prefetch Requests: 0
L1D ROI Sum of L1D PQ occupancy: 0
L1D PREFETCHES PUSHED FROM L2C: 0
43a8da: 1
419c6a: 1
41b253: 1
419b76: 1
411804: 1
43a763: 1
43a7d9: 1
43a7dc: 1
41b2dc: 1
43a86d: 1
419b3f: 1
4117ed: 1
41a59a: 1
41187a: 1
419e61: 1
43a879: 1
4117f0: 1
419bd0: 1
41182c: 1
55f8fb: 1
4cf7ab: 1
43b23f: 1
43a804: 1
419c56: 1
419e23: 1
41b274: 1
43adea: 1
411861: 1
419c1f: 1
563540: 1
411850: 1
4119cc: 1
419e4c: 1
41b2ae: 1
41187d: 1
55fefd: 1
4117cd: 1
419bfc: 1
411868: 1
43af45: 1
56103f: 1
41b354: 1
411848: 1
419b62: 1
419bb9: 1
419c33: 1
419b8d: 1
419ca1: 1
419ca9: 1
562ec9: 1
419e44: 1
419e06: 1
4cf894: 1
41b222: 1
41b23e: 1
41b291: 1
41b2ca: 1
55fabf: 1
41b287: 1
41b2a4: 1
562ee0: 1
411871: 1
43aaec: 1
55fd49: 1
419c75: 1
41b309: 1
5603f5: 1
55fd60: 1
43a810: 1
55fa1d: 1
55fa3a: 1
55faab: 1
4cf849: 1
41a238: 1
55fab7: 1
55f9ff: 1
4cf875: 1
43a4c4: 2
41a2aa: 3
439d6b: 4
4397cd: 11
4396e4: 11
4399c1: 11
4398ef: 11
439a3f: 11
439761: 11
43964a: 11
43993b: 11
439837: 11
439871: 11
43a74b: 11
43977e: 11
43a68c: 12
43a5d0: 12
43a586: 12
439f8c: 12
439dd6: 12
43a189: 12
439fb0: 12
439f71: 12
43a6c3: 12
563559: 12
439df5: 12
43a3ed: 12
439da0: 12
43a5a2: 12
43a6e3: 12
43a7b8: 12
43a76b: 12
43a548: 12
43a589: 12
43a6db: 12
43a027: 12
43a624: 12
43a231: 12
43a599: 12
43a5d8: 12
439f43: 12
43a6f3: 12
43a7ae: 12
439f79: 12
43a239: 12
439da8: 12
43a23c: 12
439ead: 12
439e06: 12
43a258: 12
43a2d3: 12
439e3c: 12
43a2ba: 12
439f89: 12
439f5b: 12
43a169: 12
439db8: 12
43a0c7: 12
43a00a: 12
43a341: 12
43a118: 12
43a75b: 12
43a30d: 12
43a654: 12
439e1d: 12
439f53: 12
43a260: 12
43a24d: 12
43a442: 12
439d98: 12
439dd9: 12
43a3e1: 22
43a5dd: 24
439e34: 49
41a64b: 60
41a669: 77
41a289: 95
41a6c1: 98
41a3c4: 98
41a2df: 98
41a377: 98
41a72a: 98
43a1d3: 141
43a1c3: 144
41a4b8: 157
41a4c0: 176
43a088: 324
43a080: 326
439d7a: 447
4396b8: 450
4396c0: 450
439d5b: 451
439d2a: 451
439d35: 451
439d3d: 451
43a0b0: 456
43a1fb: 468
43a1bb: 468
43a3e7: 705
43a403: 720
43a434: 768
43a3f5: 780
43a410: 780
43a45a: 780
43a450: 780
439e30: 780
439fc5: 780
43a42a: 780
439fc0: 780
41a5b7: 3261
41a58a: 3319
41a2f0: 6435
41a5ae: 9968
41a538: 16083
43a0ef: 29218
43a103: 29225
43a158: 29249
43a0fd: 29271
439720: 29273
439753: 29273
43972d: 29273
43a183: 29879
43a146: 30300
439ed4: 30300
43a0c0: 30300
43a0cf: 30300
43a0d9: 30312
439ed0: 30420
43a17d: 30420
43a0d5: 30420
43a680: 31080
43a688: 31080
41a54a: 239969
41a596: 256052
41a5aa: 256052
41a558: 256052
41a566: 256052
41a573: 256052
L1I TOTAL     ACCESS:   35744126  HIT:   35743953  MISS:        173  HIT %:    99.9995  MISS %: 0.000483996   MPKI: 0.000865
L1I Test counter:          0
L1I LOAD      ACCESS:   35744126  HIT:   35743953  MISS:        223  HIT %:    99.9995  MISS %: 0.000483996   MPKI: 0.000865
L1I PREFETCH  REQUESTED:          0  ISSUED:          0  USEFUL:          0  USELESS:          0
L1I USEFUL LOAD PREFETCHES:          0 PREFETCH ISSUED TO LOWER LEVEL:          0  ACCURACY: -nan
L1I TIMELY PREFETCHES:          0 LATE PREFETCHES: 0 DROPPED PREFETCHES: 0
L1I COMMIT LATE PREFETCHES: 0 MISSED OPPORTUNITY: 0 LATE IN PQ: 0 UNCOVERED: 0
L1I COMMIT LATE MSHR PREFETCHES: 0
L1I MPKI TOTAL: 0.001115 MSHR LATE: 0 PQ LATE: 0 COMMIT LATE: 0 MISSED OPPORTUNITY: 0 UNCOVERED: 0
L1I PREFETCHES SAME FILL-ORIGIN LEVEL: 0 DIFFERENT FILL-ORIGIN LEVEL: 0
L1I AVERAGE MISS LATENCY: 215.37 cycles
L1I AVERAGE MISS LATENCY LOAD: 215.37 cycles
L1I AVERAGE MISS LATENCY PREFETCH: -nan cycles
L1I AVERAGE MSHR OCCUPANCY: 4.11256e-06
L1I MSHR FULL: 0
L1I RQ	ACCESS:   53367617	FORWARD:          0	MERGED:   17623442	TO_CACHE:   35744175

43a881: 1
4cf7c6: 1
562f41: 1
41b402: 1
41a501: 1
41b446: 1
561080: 1
56ad10: 1
419b20: 1
41a442: 1
4cf884: 1
43ad07: 1
419b42: 1
419b81: 1
419bc4: 1
419c07: 1
419c42: 1
419c81: 1
419fc4: 1
43aa05: 1
419cc6: 1
43b225: 1
43ab87: 1
560ea8: 1
55fe46: 1
55f902: 1
41a200: 1
43adca: 1
41a343: 1
43aac7: 1
560d70: 1
41a383: 1
4022c3: 1
419d00: 1
41b344: 1
43ae02: 1
402301: 1
411ae7: 1
43ac82: 1
457516: 1
561658: 1
41b201: 1
41a300: 1
4cf780: 1
41a001: 1
560e29: 1
419ec3: 1
419d86: 1
56adc1: 1
419dc1: 1
56ad60: 1
419e44: 1
419f00: 1
419f80: 1
41b3c0: 1
41b282: 1
4110c7: 1
41a044: 1
41a082: 1
43ae40: 1
41a101: 1
41a182: 1
41a1c3: 1
41a400: 1
41a4c0: 1
41a542: 1
41a141: 1
41a285: 1
419d41: 1
560f02: 1
562f09: 1
56150c: 1
4cf92d: 1
560f44: 1
561002: 1
561128: 1
4cbb60: 1
402480: 1
5611f8: 1
561043: 1
41b241: 1
419e82: 1
561480: 1
561e84: 1
561dcf: 1
561e06: 1
5613c7: 1
561e6b: 1
560fbe: 1
55fe18: 1
4cf825: 1
5603f5: 1
419f40: 1
55fa04: 1
43af41: 1
55f9e0: 1
561203: 1
563540: 1
41b384: 1
410e41: 1
55fb03: 1
43acc7: 1
562ec0: 1
41a240: 1
410d80: 1
43a980: 1
43ad44: 1
55fd40: 1
402286: 1
55f8c1: 1
41a6c1: 1
41a684: 1
41a641: 1
41a602: 1
41a5c5: 1
560fc2: 1
402230: 1
561400: 1
41a586: 1
4cf840: 1
410e00: 1
43ae81: 1
43b241: 1
55ff04: 1
43ac03: 1
55feee: 1
55fac3: 1
41b2c2: 1
56ad81: 1
41a3c1: 1
561440: 1
4023ac: 1
43ac43: 1
4119c2: 1
56124f: 1
43ad86: 1
43a842: 1
40247b: 1
411804: 1
55fb42: 1
410dc3: 1
55fa42: 1
43a804: 1
41b304: 1
43abc3: 1
43a904: 1
410fa2: 1
43a945: 1
43aa81: 1
43af07: 1
41a480: 1
43ab04: 1
4117c3: 1
41a2c1: 1
560400: 1
41b190: 1
411880: 1
411840: 1
43aec2: 1
560d81: 1
402242: 1
55faa0: 1
560ec0: 1
41a715: 1
43ab48: 1
41a0c1: 1
4117a0: 1
419e02: 1
55f8b0: 1
43aa40: 1
43a9c4: 1
41b1c5: 1
43a8c7: 1
BTB TOTAL     ACCESS:    7097439  HIT:    7097307  MISS:        132  HIT %:    99.9981  MISS %: 0.00185983   MPKI: 0.00066
BTB Test counter:          0
BTB BRANCH_DIRECT_JUMP	ACCESS:        147  HIT:        134  MISS:         13
BTB BRANCH_INDIRECT	ACCESS:          0  HIT:          0  MISS:          0
BTB BRANCH_CONDITIONAL	ACCESS:    7097034  HIT:    7096975  MISS:         59
BTB BRANCH_DIRECT_CALL	ACCESS:        129  HIT:         99  MISS:         30
BTB BRANCH_INDIRECT_CALL	ACCESS:          0  HIT:          0  MISS:          0
BTB BRANCH_RETURN	ACCESS:        129  HIT:         99  MISS:         30
BTB BRANCH_OTHER ACCESS:          0  HIT:          0  MISS:          0

L2C TOTAL     ACCESS:    3004280  HIT:     601869  MISS:    2402411  HIT %:    20.0337  MISS %:    79.9663   MPKI: 12.0121
L2C Test counter:          0
L2C LOAD      ACCESS:    2115011  HIT:     167107  MISS:    1947904  HIT %:      7.901  MISS %:     92.099   MPKI: 9.73952
L2C DATA LOAD MPKI: 9.73865
L2C INSTRUCTION LOAD MPKI: 0.000865
L2C RFO       ACCESS:     404426  HIT:       1438  MISS:     402988  HIT %:   0.355566  MISS %:    99.6444   MPKI: 2.01494
L2C WRITEBACK ACCESS:     413069  HIT:     401195  MISS:      11874  HIT %:    97.1254  MISS %:    2.87458   MPKI: 0.05937
L2C LOAD TRANSLATION ACCESS:      71774  HIT:      32129  MISS:      39645  HIT %:    44.7641  MISS %:    55.2359   MPKI: 0.198225
L2C PREFETCH  REQUESTED:          0  ISSUED:          0  USEFUL:          0  USELESS:          0
L2C USEFUL LOAD PREFETCHES:          0 PREFETCH ISSUED TO LOWER LEVEL:          0  ACCURACY: -nan
L2C TIMELY PREFETCHES:          0 LATE PREFETCHES: 0 DROPPED PREFETCHES: 0
L2C COMMIT LATE PREFETCHES: 0 MISSED OPPORTUNITY: 0 LATE IN PQ: 0 UNCOVERED: 0
L2C COMMIT LATE MSHR PREFETCHES: 0
L2C MPKI TOTAL: 9.73952 MSHR LATE: 0 PQ LATE: 0 COMMIT LATE: 0 MISSED OPPORTUNITY: 0 UNCOVERED: 0
L2C PREFETCHES SAME FILL-ORIGIN LEVEL: 0 DIFFERENT FILL-ORIGIN LEVEL: 0
L2C AVERAGE MISS LATENCY: 138.593 cycles
L2C AVERAGE MISS LATENCY LOAD: 134.971 cycles
L2C AVERAGE MISS LATENCY PREFETCH: -nan cycles
L2C AVERAGE MSHR OCCUPANCY: 1.56466
L2C MSHR FULL: 0
L2C RQ	ACCESS:    2591212	FORWARD:          0	MERGED:          0	TO_CACHE:    2591211
L2C WQ	ACCESS:     413069	FORWARD:          1	MERGED:          0	TO_CACHE:     413069

L2C Instructions Evicting Data 173
L2C Translations Evicting Data 38927
L2C Data Evicting Data 2312007
L2C Instructions Evicting Instructions 0
L2C Translations Evicting Instructions 7
L2C Data Evicting Instructions 166
L2C Instructions Evicting Translations 0
L2C Translations Evicting Translations 711
L2C Data Evicting Translations 38546
L2C Dense regions hint from L2: 0
43a810: 1
55feee: 1
55fabf: 1
55fab7: 1
55faa0: 1
55fa42: 1
55fa1d: 1
41b190: 1
560400: 1
419c75: 1
411848: 1
55fd60: 1
41b344: 1
41182c: 1
43a1fb: 1
419b42: 1
4cf884: 1
43a881: 1
419c1f: 1
41b274: 1
55fac3: 1
41b304: 1
4cf894: 1
41a141: 1
5611f8: 1
56ad10: 1
4cbb60: 1
55fe18: 1
4119cc: 1
561440: 1
4cf849: 1
419d00: 1
43b225: 1
43aec2: 1
410dc3: 1
55fefd: 1
55ff04: 1
41a59a: 1
560ea8: 1
4cf840: 1
43a9c4: 1
41a2c1: 1
41a586: 1
43aac7: 1
56adc1: 1
419dc1: 1
419c42: 1
56ad81: 1
419ec3: 1
560e29: 1
41b282: 1
41187d: 1
402301: 1
4cf7ab: 1
43ae02: 1
562ee0: 1
55fb03: 1
41b287: 1
43a879: 1
419b3f: 1
410e00: 1
561480: 1
43a945: 1
41b2ae: 1
419bfc: 1
43b241: 1
41a238: 1
41b253: 1
43ab87: 1
411861: 1
4cf780: 1
4cf875: 1
43af07: 1
41a343: 1
562f09: 1
561400: 1
43ad07: 1
561203: 1
561128: 1
561080: 1
560fbe: 1
560f02: 1
56150c: 1
560d70: 1
561043: 1
561e6b: 1
562ec9: 1
562ec0: 1
41a285: 1
419d41: 1
561002: 1
41b3c0: 1
419ca9: 1
56ad60: 1
41a602: 1
41a5c5: 1
41a300: 1
41a542: 1
41a480: 1
41a400: 1
41a3c1: 1
41a383: 1
419f80: 1
41a200: 1
419fc4: 1
419f40: 1
419e02: 1
419d86: 1
43ae81: 1
561dcf: 1
561e84: 1
41b2c2: 1
41b384: 1
4cf825: 1
41b2a4: 1
560fc2: 1
411868: 1
41b2ca: 1
5613c7: 1
41b2dc: 1
41a001: 1
41b23e: 1
41b222: 1
419e82: 1
41b241: 1
41b201: 1
419e06: 1
4110c7: 1
41b1c5: 1
4cf7c6: 1
419b8d: 1
419c33: 1
419c81: 1
41a641: 1
419bb9: 1
419b62: 1
419c07: 1
419bc4: 1
41b291: 1
419e23: 1
419b81: 1
43af41: 1
419b20: 1
41b446: 1
562f41: 1
41b402: 1
41b354: 1
561e06: 1
43a86d: 1
43a8da: 1
43a980: 1
560ec0: 1
4117f0: 1
419c56: 1
410d80: 1
55f902: 1
55fe46: 1
4117a0: 1
411840: 1
4117ed: 1
419bd0: 1
43adea: 1
411850: 1
43adca: 1
40247b: 1
419f00: 1
55fb42: 1
411871: 1
43aa40: 1
55f8b0: 1
55f9ff: 1
41a082: 1
55fa3a: 1
4117cd: 1
43abc3: 1
43aa05: 1
419cc6: 1
43a0b0: 1
43a763: 1
43ac43: 1
560f44: 1
55faab: 1
41b309: 1
4cf92d: 1
410fa2: 1
41a501: 1
41a101: 1
43a7d9: 1
43ad44: 1
560d81: 1
41a0c1: 1
41a182: 1
402242: 1
55f8fb: 1
43a7dc: 1
43a8c7: 1
411880: 1
41a1c3: 1
43ac82: 1
419e4c: 1
4117c3: 1
419e61: 1
419ca1: 1
43ac03: 1
56103f: 1
43acc7: 1
41a044: 1
41a240: 1
43aaec: 1
55fd40: 1
402286: 1
55f9e0: 1
43ab48: 1
411ae7: 1
55f8c1: 1
56124f: 1
43aa81: 1
43b23f: 1
43a842: 1
43ad86: 1
410e41: 1
402230: 1
43af45: 1
43ab04: 1
4119c2: 1
41a442: 1
43a904: 1
41a715: 1
561658: 1
419c6a: 1
402480: 1
457516: 1
419b76: 1
43ae40: 1
41a684: 1
43a1c3: 1
55fa04: 1
4022c3: 1
55fd49: 1
4023ac: 1
43a804: 2
563540: 2
43a1d3: 2
419e44: 2
41a5b7: 2
5603f5: 2
43a4c4: 2
411804: 2
41a2aa: 3
43a74b: 5
439fb0: 5
43964a: 5
43a7b8: 6
43a6e3: 7
43a76b: 7
43a6db: 7
4399c1: 11
4396c0: 11
439a3f: 11
439871: 11
439761: 11
4398ef: 11
43993b: 11
43a7ae: 11
4396b8: 11
4397cd: 11
43977e: 11
439837: 11
43a75b: 11
4396e4: 11
563559: 11
439f53: 12
43a260: 12
439e3c: 12
43a258: 12
43a5d0: 12
439df5: 12
439dd9: 12
43a548: 12
43a599: 12
439f79: 12
43a442: 12
43a24d: 12
439e1d: 12
439da0: 12
43a341: 12
43a6c3: 12
43a189: 12
439ead: 12
439db8: 12
43a118: 12
43a23c: 12
439d98: 12
439e06: 12
439f71: 12
43a2d3: 12
43a6f3: 12
43a169: 12
43a5a2: 12
43a5dd: 12
43a30d: 12
43a68c: 12
43a2ba: 12
439dd6: 12
439da8: 12
43a239: 12
43a3ed: 12
41a58a: 25
41a669: 64
41a289: 95
41a72a: 98
41a3c4: 98
41a377: 98
41a2df: 98
41a6c1: 99
41a4c0: 103
41a4b8: 103
43a434: 768
43a103: 780
43a450: 780
439e30: 780
43a0ef: 780
43a0fd: 780
43a183: 780
43a3f5: 780
439fc0: 780
43a410: 780
43a42a: 780
43a158: 780
439fc5: 780
43a45a: 780
41a2f0: 6435
41a5ae: 6867
41a538: 16083
439ed4: 24578
439753: 29273
439720: 29273
43972d: 29273
43a688: 29756
43a0cf: 30300
43a146: 30300
43a0c0: 30300
43a0d9: 30312
439ed0: 30420
43a17d: 30420
43a0d5: 30420
43a680: 31014
41a54a: 239969
41a558: 256016
41a596: 256052
41a566: 256052
41a573: 256052
41a5aa: 256052
PSCL5 TOTAL     ACCESS:      47840  HIT:      47840  MISS:          0  HIT %:        100  MISS %:          0   MPKI: 0
PSCL5 Test counter:          0
PSCL5 LOAD TRANSLATION ACCESS:      47840  HIT:      47840  MISS:          0  HIT %:        100  MISS %:          0   MPKI: 0
PSCL5 PREFETCH  REQUESTED:          0  ISSUED:          0  USEFUL:          0  USELESS:          0
PSCL5 USEFUL LOAD PREFETCHES:          0 PREFETCH ISSUED TO LOWER LEVEL:          0  ACCURACY: -nan
PSCL5 TIMELY PREFETCHES:          0 LATE PREFETCHES: 0 DROPPED PREFETCHES: 0
PSCL5 COMMIT LATE PREFETCHES: 0 MISSED OPPORTUNITY: 0 LATE IN PQ: 0 UNCOVERED: 0
PSCL5 COMMIT LATE MSHR PREFETCHES: 0
PSCL5 MPKI TOTAL: 0 MSHR LATE: 0 PQ LATE: 0 COMMIT LATE: 0 MISSED OPPORTUNITY: 0 UNCOVERED: 0
PSCL5 PREFETCHES SAME FILL-ORIGIN LEVEL: 0 DIFFERENT FILL-ORIGIN LEVEL: 0

PSCL4 TOTAL     ACCESS:      47840  HIT:      47840  MISS:          0  HIT %:        100  MISS %:          0   MPKI: 0
PSCL4 Test counter:          0
PSCL4 LOAD TRANSLATION ACCESS:      47840  HIT:      47840  MISS:          0  HIT %:        100  MISS %:          0   MPKI: 0
PSCL4 PREFETCH  REQUESTED:          0  ISSUED:          0  USEFUL:          0  USELESS:          0
PSCL4 USEFUL LOAD PREFETCHES:          0 PREFETCH ISSUED TO LOWER LEVEL:          0  ACCURACY: -nan
PSCL4 TIMELY PREFETCHES:          0 LATE PREFETCHES: 0 DROPPED PREFETCHES: 0
PSCL4 COMMIT LATE PREFETCHES: 0 MISSED OPPORTUNITY: 0 LATE IN PQ: 0 UNCOVERED: 0
PSCL4 COMMIT LATE MSHR PREFETCHES: 0
PSCL4 MPKI TOTAL: 0 MSHR LATE: 0 PQ LATE: 0 COMMIT LATE: 0 MISSED OPPORTUNITY: 0 UNCOVERED: 0
PSCL4 PREFETCHES SAME FILL-ORIGIN LEVEL: 0 DIFFERENT FILL-ORIGIN LEVEL: 0

PSCL3 TOTAL     ACCESS:      47814  HIT:      47632  MISS:        182  HIT %:    99.6194  MISS %:   0.380642   MPKI: 0.00091
PSCL3 Test counter:          0
PSCL3 LOAD TRANSLATION ACCESS:      47814  HIT:      47632  MISS:        182  HIT %:    99.6194  MISS %:   0.380642   MPKI: 0.00091
PSCL3 PREFETCH  REQUESTED:          0  ISSUED:          0  USEFUL:          0  USELESS:          0
PSCL3 USEFUL LOAD PREFETCHES:          0 PREFETCH ISSUED TO LOWER LEVEL:          0  ACCURACY: -nan
PSCL3 TIMELY PREFETCHES:          0 LATE PREFETCHES: 0 DROPPED PREFETCHES: 0
PSCL3 COMMIT LATE PREFETCHES: 0 MISSED OPPORTUNITY: 0 LATE IN PQ: 0 UNCOVERED: 0
PSCL3 COMMIT LATE MSHR PREFETCHES: 0
PSCL3 MPKI TOTAL: 0 MSHR LATE: 0 PQ LATE: 0 COMMIT LATE: 0 MISSED OPPORTUNITY: 0 UNCOVERED: 0
PSCL3 PREFETCHES SAME FILL-ORIGIN LEVEL: 0 DIFFERENT FILL-ORIGIN LEVEL: 0

PSCL2 TOTAL     ACCESS:      47840  HIT:      23818  MISS:      24022  HIT %:    49.7868  MISS %:    50.2132   MPKI: 0.12011
PSCL2 Test counter:          0
PSCL2 LOAD TRANSLATION ACCESS:      47840  HIT:      23818  MISS:      24022  HIT %:    49.7868  MISS %:    50.2132   MPKI: 0.12011
PSCL2 PREFETCH  REQUESTED:          0  ISSUED:          0  USEFUL:          0  USELESS:          0
PSCL2 USEFUL LOAD PREFETCHES:          0 PREFETCH ISSUED TO LOWER LEVEL:          0  ACCURACY: -nan
PSCL2 TIMELY PREFETCHES:          0 LATE PREFETCHES: 0 DROPPED PREFETCHES: 0
PSCL2 COMMIT LATE PREFETCHES: 0 MISSED OPPORTUNITY: 0 LATE IN PQ: 0 UNCOVERED: 0
PSCL2 COMMIT LATE MSHR PREFETCHES: 0
PSCL2 MPKI TOTAL: 0 MSHR LATE: 0 PQ LATE: 0 COMMIT LATE: 0 MISSED OPPORTUNITY: 0 UNCOVERED: 0
PSCL2 PREFETCHES SAME FILL-ORIGIN LEVEL: 0 DIFFERENT FILL-ORIGIN LEVEL: 0

LLC TOTAL     ACCESS:    2801903  HIT:     958213  MISS:    1843690  HIT %:    34.1986  MISS %:    65.8014   MPKI: 9.21845
LLC Test counter:          0
LLC LOAD      ACCESS:    1947904  HIT:     435721  MISS:    1512183  HIT %:    22.3687  MISS %:    77.6313   MPKI: 7.56091
LLC RFO       ACCESS:     402988  HIT:      88467  MISS:     314521  HIT %:    21.9528  MISS %:    78.0472   MPKI: 1.5726
LLC WRITEBACK ACCESS:     411366  HIT:     410885  MISS:        481  HIT %:    99.8831  MISS %:   0.116928   MPKI: 0.002405
LLC LOAD TRANSLATION ACCESS:      39645  HIT:      23140  MISS:      16505  HIT %:     58.368  MISS %:     41.632   MPKI: 0.082525
LLC PREFETCH  REQUESTED:          0  ISSUED:          0  USEFUL:          0  USELESS:          0
LLC USEFUL LOAD PREFETCHES:          0 PREFETCH ISSUED TO LOWER LEVEL:          0  ACCURACY: -nan
LLC TIMELY PREFETCHES:          0 LATE PREFETCHES: 0 DROPPED PREFETCHES: 0
LLC COMMIT LATE PREFETCHES: 0 MISSED OPPORTUNITY: 0 LATE IN PQ: 0 UNCOVERED: 0
LLC COMMIT LATE MSHR PREFETCHES: 0
LLC MPKI TOTAL: 7.56091 MSHR LATE: 0 PQ LATE: 0 COMMIT LATE: 0 MISSED OPPORTUNITY: 0 UNCOVERED: 0
LLC PREFETCHES SAME FILL-ORIGIN LEVEL: 0 DIFFERENT FILL-ORIGIN LEVEL: 0
LLC AVERAGE MISS LATENCY: 140.862 cycles
LLC AVERAGE MISS LATENCY LOAD: 134.31 cycles
LLC AVERAGE MISS LATENCY PREFETCH: -nan cycles
LLC AVERAGE MSHR OCCUPANCY: 1.15603
LLC MSHR FULL: 0
LLC RQ	ACCESS:    2390537	FORWARD:          0	MERGED:          0	TO_CACHE:    2390537
LLC WQ	ACCESS:     411366	FORWARD:          0	MERGED:          0	TO_CACHE:     411366

LLC Dense regions hint to LLC: 0
55fb03: 1
43ac03: 1
43a810: 1
419cc6: 1
43aa05: 1
55fb42: 1
40247b: 1
561e06: 1
419c56: 1
560ec0: 1
4117c3: 1
43ab48: 1
4cf7ab: 1
411880: 1
411868: 1
55feee: 1
43a86d: 1
55f902: 1
55fe46: 1
55f8fb: 1
41a586: 1
4cf840: 1
560d81: 1
402242: 1
56ad81: 1
41b291: 1
43af45: 1
4117cd: 1
411840: 1
4117ed: 1
419bd0: 1
41182c: 1
560e29: 1
43a904: 1
562ee0: 1
410dc3: 1
55fab7: 1
43af41: 1
41b253: 1
560ea8: 1
43a9c4: 1
4cf7c6: 1
43ad07: 1
56adc1: 1
419dc1: 1
55faa0: 1
419c42: 1
419ec3: 1
411850: 1
41187d: 1
41a442: 1
41a240: 1
41a59a: 1
43a30d: 1
56ad10: 1
419e61: 1
411ae7: 1
41a6c1: 1
419b76: 1
411861: 1
41a082: 1
55fabf: 1
41a1c3: 1
55faab: 1
41a2c1: 1
410e00: 1
410e41: 1
55f9ff: 1
43b23f: 1
55f8c1: 1
419d00: 1
43b225: 1
55f9e0: 1
402286: 1
55fd40: 1
419f00: 1
55fd49: 1
55fa04: 1
43ac43: 1
43ad86: 1
419c75: 1
55fd60: 1
41b190: 1
560400: 1
43aa81: 1
55fa3a: 1
55fac3: 1
55fefd: 1
55fe18: 1
43ae81: 1
4cf849: 1
43af07: 1
4cf875: 1
560f44: 1
4cf92d: 1
4022c3: 1
43adca: 1
411848: 1
4119c2: 1
411871: 1
43ad44: 1
43aa40: 1
55f8b0: 1
43aac7: 1
43ab04: 1
402230: 1
41a101: 1
43ae40: 1
41a141: 1
5611f8: 1
4cbb60: 1
41b282: 1
43ae02: 1
402301: 1
4023ac: 1
55fa42: 1
402480: 1
43abc3: 1
419ca1: 1
43ac82: 1
56103f: 1
43acc7: 1
41a044: 1
4110c7: 1
56124f: 1
43a842: 1
4cf825: 1
5613c7: 1
419e02: 1
41b2ca: 1
560fc2: 1
419d86: 1
561dcf: 1
41b287: 1
41b2a4: 1
41b2dc: 1
41b344: 1
41b384: 1
41b309: 1
41b3c0: 1
41a001: 1
41b354: 1
41b402: 1
562f41: 1
419e82: 1
419c6a: 1
41a200: 1
561658: 1
419e06: 1
41b201: 1
41a182: 1
41a0c1: 1
41b241: 1
41b446: 1
419fc4: 1
41b222: 1
41b23e: 1
419f40: 1
41b2c2: 1
41b2ae: 1
4cf780: 1
562f09: 1
419f80: 1
561043: 1
419ca9: 1
561002: 1
419d41: 1
41a285: 1
562ec0: 1
562ec9: 1
419b8d: 1
560d70: 1
56150c: 1
560f02: 1
560fbe: 1
561080: 1
561128: 1
561203: 1
561400: 1
419bfc: 1
419b20: 1
419b81: 1
419e23: 1
561e84: 1
419bc4: 1
419c07: 1
419b62: 1
41a238: 1
41b1c5: 1
41a684: 1
561440: 1
419bb9: 1
41a641: 1
419c81: 1
419c1f: 1
419c33: 1
41a3c1: 1
41a602: 1
43a879: 1
41a343: 1
561e6b: 1
419b3f: 1
43a8c7: 1
419b42: 1
4cf884: 1
43a881: 1
41a383: 1
56ad60: 1
41a400: 1
41a480: 1
41b274: 1
43a7dc: 1
41a542: 1
55ff04: 1
43ab87: 1
41a501: 1
41a5c5: 1
410fa2: 1
41a715: 1
4117a0: 1
4cf894: 1
43a980: 1
43a945: 1
41b304: 1
4117f0: 1
43b241: 1
410d80: 1
41a300: 1
43aec2: 1
457516: 1
43a8da: 1
561480: 1
411804: 2
43a1d3: 2
41a669: 2
41a4c0: 2
43a410: 2
419e44: 2
563540: 2
5603f5: 2
43a804: 2
439f71: 4
439761: 4
43a7b8: 5
439dd9: 6
43a118: 6
563559: 6
43993b: 10
4399c1: 10
439837: 11
4396b8: 11
4396e4: 11
4397cd: 11
4396c0: 11
439a3f: 11
43977e: 11
439871: 11
439f53: 12
43a68c: 12
439e06: 12
43a442: 12
43a3ed: 12
439ead: 12
439e3c: 12
439d98: 12
439db8: 12
43a6f3: 12
43a5a2: 12
439da0: 12
439df5: 12
43a169: 12
439dd6: 12
43a5dd: 12
43a341: 12
439e1d: 12
43a189: 12
439f79: 12
439da8: 12
43a45a: 19
41a58a: 25
43a688: 53
43a42a: 61
43a434: 154
43a450: 325
43a0fd: 349
43a183: 503
43a0ef: 565
43a158: 708
439fc5: 780
439fc0: 780
439e30: 780
43a103: 780
41a558: 2604
43a680: 4013
439ed4: 4219
41a2f0: 6435
41a5ae: 6435
43a17d: 9896
43a0cf: 10622
43a146: 10624
43a0c0: 10672
43a0d9: 11221
41a538: 16083
439753: 29273
43972d: 29273
439720: 29273
439ed0: 30420
43a0d5: 30420
41a54a: 239969
41a5aa: 256052
41a596: 256052
41a573: 256052
41a566: 256052

RAW hits: 1307754
Loads Generated: 73695307
Loads sent to L1D: 72387544
Stores Generated: 11408451
Stores sent to L1D: 11408461
Major fault: 0 Minor fault: 53394
Allocated PAGES: 53394
Total Load insts: 88314445
Total Non-spec loads: 7369791
Percentage of speculative loads: 91.6551
L1D response latency: 140.143 cycles
Load retirement latency: 207.935 cycles


DRAM Statistics
 CHANNEL 0
 RQ ROW_BUFFER_HIT:    1182442  ROW_BUFFER_MISS:     660721
 DBUS_CONGESTED:        414
 WQ ROW_BUFFER_HIT:     158419  ROW_BUFFER_MISS:     208715  FULL:          0

 AVG_CONGESTED_CYCLE: 4
 All warmup complete: 2
Channel 0 Bank busy for read cycles: 0
Channel 0 Bank busy for write cycles: 0
Channel 0
Rank 0
0banks busy for read cycles: 103988147
0banks busy for write cycles: 96076
1banks busy for read cycles: 82927324
1banks busy for write cycles: 15101556
2banks busy for read cycles: 33159510
2banks busy for write cycles: 8972712
3banks busy for read cycles: 1624746
3banks busy for write cycles: 4190577
4banks busy for read cycles: 628467
4banks busy for write cycles: 1746257
5banks busy for read cycles: 112541
5banks busy for write cycles: 730272
6banks busy for read cycles: 60966
6banks busy for write cycles: 424705
7banks busy for read cycles: 45661
7banks busy for write cycles: 376122
8banks busy for read cycles: 65621
8banks busy for write cycles: 1572436

CPU 0 Branch Prediction Accuracy: 99.9104% MPKI: 0.03179 Average ROB Occupancy at Mispredict: 268.531
Branch types
NOT_BRANCH: 192901048 96.4505%
BRANCH_DIRECT_JUMP: 147 7.35e-05%
BRANCH_INDIRECT: 0 0%
BRANCH_CONDITIONAL: 7098487 3.54924%
BRANCH_DIRECT_CALL: 129 6.45e-05%
BRANCH_INDIRECT_CALL: 0 0%
BRANCH_RETURN: 129 6.45e-05%
BRANCH_OTHER: 0 0%

DRAM PAGES: 1048576
Allocated PAGES: 53394
