
*** ChampSim Multicore Out-of-Order Simulator ***

Warmup Instructions: 50000000
Simulation Instructions: 200000000
Number of CPUs: 1
LLC sets: 2048
LLC ways: 16
Off-chip DRAM Size: 4096 MB Channels: 1 Width: 64-bit Data Rate: 6400 MT/s
CPU 0 runs /home/sumon/secure_berti/Berti_Baseline/../../traces/spec/654.roms_s-1613B.champsimtrace.xz
.xz
BTB has LRU replacement policy
ITLB has LRU replacement policy
DTLB has LRU replacement policy
STLB has LRU replacement policy
L1I has LRU replacement policy
L1D has LRU replacement policy
L2C has LRU replacement policy
LLC has LRU replacement policy
Heartbeat CPU 0 instructions: 10000001 cycles: 2914341 heartbeat IPC: 3.43131 cumulative IPC: 3.43131 (Simulation time: 0 hr 0 min 30 sec) 
Heartbeat CPU 0 instructions: 20000000 cycles: 5828653 heartbeat IPC: 3.43134 cumulative IPC: 3.43132 (Simulation time: 0 hr 1 min 2 sec) 
Heartbeat CPU 0 instructions: 30000000 cycles: 8742816 heartbeat IPC: 3.43152 cumulative IPC: 3.43139 (Simulation time: 0 hr 1 min 32 sec) 
Heartbeat CPU 0 instructions: 40000000 cycles: 11657064 heartbeat IPC: 3.43142 cumulative IPC: 3.4314 (Simulation time: 0 hr 2 min 2 sec) 
Heartbeat CPU 0 instructions: 50000001 cycles: 15202314 heartbeat IPC: 2.82068 cumulative IPC: 3.28897 (Simulation time: 0 hr 2 min 31 sec) 

Warmup complete CPU 0 instructions: 50000001 cycles: 15202314 (Simulation time: 0 hr 2 min 31 sec) 

Heartbeat CPU 0 instructions: 60000001 cycles: 32526126 heartbeat IPC: 0.57724 cumulative IPC: 0.57724 (Simulation time: 0 hr 3 min 8 sec) 
Heartbeat CPU 0 instructions: 70000003 cycles: 49832452 heartbeat IPC: 0.577824 cumulative IPC: 0.577532 (Simulation time: 0 hr 3 min 45 sec) 
Heartbeat CPU 0 instructions: 80000000 cycles: 66958947 heartbeat IPC: 0.58389 cumulative IPC: 0.579636 (Simulation time: 0 hr 4 min 22 sec) 
Heartbeat CPU 0 instructions: 90000001 cycles: 84018188 heartbeat IPC: 0.586193 cumulative IPC: 0.581261 (Simulation time: 0 hr 5 min 1 sec) 
Heartbeat CPU 0 instructions: 100000000 cycles: 101066134 heartbeat IPC: 0.586581 cumulative IPC: 0.582317 (Simulation time: 0 hr 5 min 39 sec) 
Heartbeat CPU 0 instructions: 110000000 cycles: 118054136 heartbeat IPC: 0.588651 cumulative IPC: 0.583363 (Simulation time: 0 hr 6 min 16 sec) 
Heartbeat CPU 0 instructions: 120000001 cycles: 150645268 heartbeat IPC: 0.306832 cumulative IPC: 0.516823 (Simulation time: 0 hr 7 min 13 sec) 
Heartbeat CPU 0 instructions: 130000000 cycles: 167935294 heartbeat IPC: 0.578368 cumulative IPC: 0.52379 (Simulation time: 0 hr 8 min 2 sec) 
Heartbeat CPU 0 instructions: 140000003 cycles: 185231186 heartbeat IPC: 0.578172 cumulative IPC: 0.529322 (Simulation time: 0 hr 8 min 43 sec) 
Heartbeat CPU 0 instructions: 150000001 cycles: 202477736 heartbeat IPC: 0.579826 cumulative IPC: 0.533973 (Simulation time: 0 hr 9 min 23 sec) 
Heartbeat CPU 0 instructions: 160000001 cycles: 219505581 heartbeat IPC: 0.587273 cumulative IPC: 0.538415 (Simulation time: 0 hr 10 min 2 sec) 
Heartbeat CPU 0 instructions: 170000002 cycles: 236570484 heartbeat IPC: 0.585998 cumulative IPC: 0.542083 (Simulation time: 0 hr 10 min 43 sec) 
Heartbeat CPU 0 instructions: 180000000 cycles: 253581264 heartbeat IPC: 0.587862 cumulative IPC: 0.54535 (Simulation time: 0 hr 11 min 23 sec) 
Heartbeat CPU 0 instructions: 190000000 cycles: 270595566 heartbeat IPC: 0.587741 cumulative IPC: 0.548174 (Simulation time: 0 hr 12 min 3 sec) 
Heartbeat CPU 0 instructions: 200000003 cycles: 303827124 heartbeat IPC: 0.300919 cumulative IPC: 0.519706 (Simulation time: 0 hr 13 min 3 sec) 
Heartbeat CPU 0 instructions: 210000001 cycles: 321122786 heartbeat IPC: 0.57818 cumulative IPC: 0.523012 (Simulation time: 0 hr 13 min 46 sec) 
Heartbeat CPU 0 instructions: 220000000 cycles: 338415763 heartbeat IPC: 0.578269 cumulative IPC: 0.525968 (Simulation time: 0 hr 14 min 28 sec) 
Heartbeat CPU 0 instructions: 230000003 cycles: 355514268 heartbeat IPC: 0.584847 cumulative IPC: 0.528926 (Simulation time: 0 hr 15 min 12 sec) 
Heartbeat CPU 0 instructions: 240000003 cycles: 372572412 heartbeat IPC: 0.58623 cumulative IPC: 0.531662 (Simulation time: 0 hr 15 min 52 sec) 
Heartbeat CPU 0 instructions: 250000000 cycles: 389617817 heartbeat IPC: 0.586668 cumulative IPC: 0.534166 (Simulation time: 0 hr 16 min 35 sec) 
Finished CPU 0 instructions: 200000000 cycles: 374415520 cumulative IPC: 0.534166 (Simulation time: 0 hr 16 min 35 sec) 

ChampSim completed all CPUs

Region of Interest Statistics

CPU 0 cumulative IPC: 0.534166 instructions: 200000000 cycles: 374415520
ITLB TOTAL     ACCESS:   30518934  HIT:   30518926  MISS:          8  HIT %:        100  MISS %: 2.62132e-05   MPKI: 4e-05
ITLB Test counter:          0
ITLB LOAD TRANSLATION ACCESS:   30518934  HIT:   30518926  MISS:          8  HIT %:        100  MISS %: 2.62132e-05   MPKI: 4e-05
ITLB PREFETCH  REQUESTED:          0  ISSUED:          0  USEFUL:          0  USELESS:          0
ITLB USEFUL LOAD PREFETCHES:          0 PREFETCH ISSUED TO LOWER LEVEL:          0  ACCURACY: -nan
ITLB TIMELY PREFETCHES:          0 LATE PREFETCHES: 0 DROPPED PREFETCHES: 0
ITLB COMMIT LATE PREFETCHES: 0 MISSED OPPORTUNITY: 0 LATE IN PQ: 0 UNCOVERED: 0
ITLB COMMIT LATE MSHR PREFETCHES: 0
ITLB MPKI TOTAL: 0 MSHR LATE: 0 PQ LATE: 0 COMMIT LATE: 0 MISSED OPPORTUNITY: 0 UNCOVERED: 0
ITLB PREFETCHES SAME FILL-ORIGIN LEVEL: 0 DIFFERENT FILL-ORIGIN LEVEL: 0
ITLB AVERAGE MISS LATENCY: 283.75 cycles
ITLB AVERAGE MISS LATENCY LOAD: -nan cycles
ITLB AVERAGE MISS LATENCY PREFETCH: -nan cycles
ITLB AVERAGE MSHR OCCUPANCY: 0
ITLB MSHR FULL: 0
ITLB RQ	ACCESS:   39779662	FORWARD:          0	MERGED:    9260728	TO_CACHE:   30518934

DTLB TOTAL     ACCESS:   40722764  HIT:   40710566  MISS:      12198  HIT %:      99.97  MISS %:  0.0299538   MPKI: 0.06099
DTLB Test counter:          0
DTLB LOAD TRANSLATION ACCESS:   40722764  HIT:   40710566  MISS:      12198  HIT %:      99.97  MISS %:  0.0299538   MPKI: 0.06099
DTLB PREFETCH  REQUESTED:          0  ISSUED:          0  USEFUL:          0  USELESS:          0
DTLB USEFUL LOAD PREFETCHES:          0 PREFETCH ISSUED TO LOWER LEVEL:          0  ACCURACY: -nan
DTLB TIMELY PREFETCHES:          0 LATE PREFETCHES: 0 DROPPED PREFETCHES: 0
DTLB COMMIT LATE PREFETCHES: 0 MISSED OPPORTUNITY: 0 LATE IN PQ: 0 UNCOVERED: 0
DTLB COMMIT LATE MSHR PREFETCHES: 0
DTLB MPKI TOTAL: 0 MSHR LATE: 0 PQ LATE: 0 COMMIT LATE: 0 MISSED OPPORTUNITY: 0 UNCOVERED: 0
DTLB PREFETCHES SAME FILL-ORIGIN LEVEL: 0 DIFFERENT FILL-ORIGIN LEVEL: 0
DTLB AVERAGE MISS LATENCY: 91.1931 cycles
DTLB AVERAGE MISS LATENCY LOAD: -nan cycles
DTLB AVERAGE MISS LATENCY PREFETCH: -nan cycles
DTLB AVERAGE MSHR OCCUPANCY: 0.00106148
DTLB MSHR FULL: 0
DTLB RQ	ACCESS:   48447833	FORWARD:          0	MERGED:    7715922	TO_CACHE:   40731911

STLB TOTAL     ACCESS:      12206  HIT:        856  MISS:      11350  HIT %:    7.01294  MISS %:    92.9871   MPKI: 0.05675
STLB Test counter:          0
STLB LOAD TRANSLATION ACCESS:      12206  HIT:        856  MISS:      11350  HIT %:    7.01294  MISS %:    92.9871   MPKI: 0.05675
STLB PREFETCH  REQUESTED:          0  ISSUED:          0  USEFUL:          0  USELESS:          0
STLB USEFUL LOAD PREFETCHES:          0 PREFETCH ISSUED TO LOWER LEVEL:          0  ACCURACY: -nan
STLB TIMELY PREFETCHES:          0 LATE PREFETCHES: 0 DROPPED PREFETCHES: 0
STLB COMMIT LATE PREFETCHES: 0 MISSED OPPORTUNITY: 0 LATE IN PQ: 0 UNCOVERED: 0
STLB COMMIT LATE MSHR PREFETCHES: 0
STLB MPKI TOTAL: 0 MSHR LATE: 0 PQ LATE: 0 COMMIT LATE: 0 MISSED OPPORTUNITY: 0 UNCOVERED: 0
STLB PREFETCHES SAME FILL-ORIGIN LEVEL: 0 DIFFERENT FILL-ORIGIN LEVEL: 0
STLB AVERAGE MISS LATENCY: 88.5189 cycles
STLB AVERAGE MISS LATENCY LOAD: -nan cycles
STLB AVERAGE MISS LATENCY PREFETCH: -nan cycles
STLB AVERAGE MSHR OCCUPANCY: 0.00737342
STLB MSHR FULL: 0
STLB RQ	ACCESS:      12206	FORWARD:          0	MERGED:          0	TO_CACHE:      12206

STLB Hit, L1D data hit: 0
STLB Hit, L2C data hit: 0
STLB Hit, LLC data hit: 0
STLB Hit, LLC data miss: 0
STLB STLB hints to L2: 0
L1D TOTAL     ACCESS:   47469971  HIT:   46911147  MISS:     558824  HIT %:    98.8228  MISS %:    1.17722   MPKI: 2.79412
L1D Test counter:          0
L1D LOAD      ACCESS:   27874880  HIT:   27539183  MISS:     624771  HIT %:    98.7957  MISS %:     1.2043   MPKI: 1.67849
L1D RFO       ACCESS:   19595091  HIT:   19371964  MISS:     223127  HIT %:    98.8613  MISS %:    1.13869   MPKI: 1.11563
L1D PREFETCH  REQUESTED:          0  ISSUED:          0  USEFUL:          0  USELESS:          0
L1D USEFUL LOAD PREFETCHES:          0 PREFETCH ISSUED TO LOWER LEVEL:          0  ACCURACY: -nan
L1D TIMELY PREFETCHES:          0 LATE PREFETCHES: 0 DROPPED PREFETCHES: 0
L1D COMMIT LATE PREFETCHES: 0 MISSED OPPORTUNITY: 0 LATE IN PQ: 0 UNCOVERED: 0
L1D COMMIT LATE MSHR PREFETCHES: 0
L1D MPKI TOTAL: 3.12385 MSHR LATE: 0 PQ LATE: 0 COMMIT LATE: 0 MISSED OPPORTUNITY: 0 UNCOVERED: 0
L1D PREFETCHES SAME FILL-ORIGIN LEVEL: 0 DIFFERENT FILL-ORIGIN LEVEL: 0
L1D AVERAGE MISS LATENCY: 215.612 cycles
L1D AVERAGE MISS LATENCY LOAD: 219.201 cycles
L1D AVERAGE MISS LATENCY PREFETCH: -nan cycles
L1D AVERAGE MSHR OCCUPANCY: 0.113107
L1D MSHR FULL: 0
L1D RQ	ACCESS:   40030949	FORWARD:          0	MERGED:   11776256	TO_CACHE:   28163953
L1D WQ	ACCESS:   21712373	FORWARD:      90740	MERGED:    1428493	TO_CACHE:   20283880

L1D UNIQUE REGIONS ACCESSED: 0
L1D REGIONS CONFLICTS: 0
L1D Cross Page Prefetch Requests: 0
L1D Same Page Prefetch Requests: 0
L1D ROI Sum of L1D PQ occupancy: 0
L1D PREFETCHES PUSHED FROM L2C: 0
50bc13: 1
55fd60: 1
50b5ec: 1
57a313: 1
53d663: 1
50bbd1: 1
55fa11: 1
50b653: 1
53d66a: 1
50cd2a: 1
50bb04: 1
445253: 1
44525a: 1
44529b: 1
50baed: 1
44529f: 1
45e45f: 1
5350c7: 1
45e432: 1
562ee0: 2
560fcb: 2
45e39c: 2
45e34b: 2
44527a: 2
45e358: 2
45e33e: 2
55fa1d: 2
45e394: 2
45e2da: 2
44523f: 2
530be2: 2
4003f0: 2
445266: 2
4453f8: 2
44549f: 2
4453a8: 2
4452bb: 2
45e2dd: 2
562ef4: 2
44521b: 2
562f09: 2
4453b5: 2
4451ec: 2
561419: 2
56103f: 2
560dae: 2
530bea: 2
55fefd: 2
55fd49: 2
55f8fb: 2
55f9ff: 2
563540: 2
45e3d1: 2
5603f5: 2
44539f: 2
55faab: 2
55fabf: 2
4451b0: 2
45e3c9: 2
4453e6: 2
45e3c1: 2
45e3e0: 2
45e407: 2
50901a: 2
560fbe: 2
560fdf: 2
45e422: 2
45e208: 2
445218: 2
44554f: 2
530bf6: 2
45e22d: 2
55fa3a: 2
576a60: 2
562ec9: 2
445407: 2
530c91: 8
530cb4: 18
530ccd: 53
530ca3: 91
4453e0: 45903
576a7b: 66304
45e300: 66560
45e304: 66560
445440: 90067
L1I TOTAL     ACCESS:   39779646  HIT:   39779540  MISS:        106  HIT %:    99.9997  MISS %: 0.000266468   MPKI: 0.00053
L1I Test counter:          0
L1I LOAD      ACCESS:   39779646  HIT:   39779540  MISS:        121  HIT %:    99.9997  MISS %: 0.000266468   MPKI: 0.00053
L1I PREFETCH  REQUESTED:          0  ISSUED:          0  USEFUL:          0  USELESS:          0
L1I USEFUL LOAD PREFETCHES:          0 PREFETCH ISSUED TO LOWER LEVEL:          0  ACCURACY: -nan
L1I TIMELY PREFETCHES:          0 LATE PREFETCHES: 0 DROPPED PREFETCHES: 0
L1I COMMIT LATE PREFETCHES: 0 MISSED OPPORTUNITY: 0 LATE IN PQ: 0 UNCOVERED: 0
L1I COMMIT LATE MSHR PREFETCHES: 0
L1I MPKI TOTAL: 0.000605 MSHR LATE: 0 PQ LATE: 0 COMMIT LATE: 0 MISSED OPPORTUNITY: 0 UNCOVERED: 0
L1I PREFETCHES SAME FILL-ORIGIN LEVEL: 0 DIFFERENT FILL-ORIGIN LEVEL: 0
L1I AVERAGE MISS LATENCY: 175.321 cycles
L1I AVERAGE MISS LATENCY LOAD: 175.321 cycles
L1I AVERAGE MISS LATENCY PREFETCH: -nan cycles
L1I AVERAGE MSHR OCCUPANCY: 1.50831e-06
L1I MSHR FULL: 0
L1I RQ	ACCESS:   57937795	FORWARD:          0	MERGED:   18158133	TO_CACHE:   39779662

50bc90: 1
50ca80: 1
50c7c5: 1
535181: 1
50c600: 1
50ba42: 1
50b75c: 1
50b680: 1
50c581: 1
50b642: 1
50bcce: 1
50bb80: 1
53d803: 1
50bec3: 1
576a01: 1
53d880: 1
56ad41: 1
56ae01: 1
50c713: 1
56add2: 1
50bb40: 1
50c400: 1
576950: 1
50c503: 1
50b6c2: 1
50bc50: 1
56ad10: 1
50be81: 1
50be0f: 1
50cf95: 1
50d202: 1
50d160: 1
50cb81: 1
50ce01: 1
57a2f0: 1
535090: 1
53d840: 1
50bf00: 1
50cd82: 1
53d7c1: 1
53d701: 1
50cd41: 1
50cd01: 1
50ccc1: 1
50d2c0: 1
50cc82: 1
50d126: 1
50cb47: 1
50cc43: 1
50cc01: 1
53d640: 1
50cb31: 1
535103: 1
50c800: 1
50c682: 1
50cfc0: 1
50ba39: 1
50bc00: 1
50c67e: 1
53d8c0: 1
50c6c3: 1
50cde9: 1
50cbc0: 1
53d742: 1
50b800: 1
50c1c9: 1
53d782: 1
57a306: 1
50c841: 1
50c880: 1
50c8c3: 1
50c048: 1
50c901: 1
50c980: 1
50be4d: 1
50c003: 1
50c090: 1
50c201: 1
50b840: 1
50b883: 1
50bbc0: 1
50ca50: 1
50c4c0: 1
50b902: 1
530ed8: 1
57bcc0: 1
53d6c2: 1
50c940: 1
50b5e0: 1
50bad0: 1
50c540: 1
53d680: 1
5350c2: 1
50b8c1: 1
50c750: 1
57bc90: 1
50bb04: 1
50c5e9: 1
50c443: 1
535142: 1
50ca10: 1
50b601: 1
50c798: 1
50c481: 1
50bff0: 1
50b700: 1
BTB TOTAL     ACCESS:   13350901  HIT:   11926181  MISS:    1424720  HIT %:    89.3287  MISS %:    10.6713   MPKI: 7.1236
BTB Test counter:          0
BTB BRANCH_DIRECT_JUMP	ACCESS:    1424895  HIT:    1424857  MISS:         38
BTB BRANCH_INDIRECT	ACCESS:         16  HIT:         15  MISS:          1
BTB BRANCH_CONDITIONAL	ACCESS:    6226070  HIT:    6225943  MISS:        127
BTB BRANCH_DIRECT_CALL	ACCESS:    2849960  HIT:    2849915  MISS:         45
BTB BRANCH_INDIRECT_CALL	ACCESS:          0  HIT:          0  MISS:          0
BTB BRANCH_RETURN	ACCESS:    2849960  HIT:    1425451  MISS:    1424509
BTB BRANCH_OTHER ACCESS:          0  HIT:          0  MISS:          0

L2C TOTAL     ACCESS:     793431  HIT:     231994  MISS:     561437  HIT %:    29.2393  MISS %:    70.7607   MPKI: 2.80719
L2C Test counter:          0
L2C LOAD      ACCESS:     335803  HIT:          5  MISS:     335798  HIT %: 0.00148897  MISS %:    99.9985   MPKI: 1.67899
L2C DATA LOAD MPKI: 1.67846
L2C INSTRUCTION LOAD MPKI: 0.00053
L2C RFO       ACCESS:     223127  HIT:          0  MISS:     223127  HIT %:          0  MISS %:        100   MPKI: 1.11563
L2C WRITEBACK ACCESS:     223146  HIT:     222742  MISS:        404  HIT %:     99.819  MISS %:   0.181047   MPKI: 0.00202
L2C LOAD TRANSLATION ACCESS:      11355  HIT:       9247  MISS:       2108  HIT %:    81.4355  MISS %:    18.5645   MPKI: 0.01054
L2C PREFETCH  REQUESTED:          0  ISSUED:          0  USEFUL:          0  USELESS:          0
L2C USEFUL LOAD PREFETCHES:          0 PREFETCH ISSUED TO LOWER LEVEL:          0  ACCURACY: -nan
L2C TIMELY PREFETCHES:          0 LATE PREFETCHES: 0 DROPPED PREFETCHES: 0
L2C COMMIT LATE PREFETCHES: 0 MISSED OPPORTUNITY: 0 LATE IN PQ: 0 UNCOVERED: 0
L2C COMMIT LATE MSHR PREFETCHES: 0
L2C MPKI TOTAL: 1.67899 MSHR LATE: 0 PQ LATE: 0 COMMIT LATE: 0 MISSED OPPORTUNITY: 0 UNCOVERED: 0
L2C PREFETCHES SAME FILL-ORIGIN LEVEL: 0 DIFFERENT FILL-ORIGIN LEVEL: 0
L2C AVERAGE MISS LATENCY: 200.449 cycles
L2C AVERAGE MISS LATENCY LOAD: 204.102 cycles
L2C AVERAGE MISS LATENCY PREFETCH: -nan cycles
L2C AVERAGE MSHR OCCUPANCY: 0.827691
L2C MSHR FULL: 0
L2C RQ	ACCESS:     570285	FORWARD:          0	MERGED:          0	TO_CACHE:     570285
L2C WQ	ACCESS:     223146	FORWARD:          0	MERGED:          0	TO_CACHE:     223146

L2C Instructions Evicting Data 104
L2C Translations Evicting Data 2086
L2C Data Evicting Data 556591
L2C Instructions Evicting Instructions 0
L2C Translations Evicting Instructions 3
L2C Data Evicting Instructions 142
L2C Instructions Evicting Translations 2
L2C Translations Evicting Translations 19
L2C Data Evicting Translations 2086
L2C Dense regions hint from L2: 0
57a313: 1
50cd2a: 1
50c713: 1
53d663: 1
50b8c1: 1
53d680: 1
50b883: 1
53d640: 1
50b5e0: 1
57bcc0: 1
50b601: 1
56ae01: 1
50bcce: 1
56ad41: 1
57a2f0: 1
50b840: 1
50ba42: 1
50ce01: 1
50c841: 1
50bad0: 1
50c540: 1
50c6c3: 1
53d8c0: 1
55fd60: 1
50b75c: 1
53d66a: 1
57a306: 1
53d840: 1
530ed8: 1
50b6c2: 1
50d160: 1
50bc50: 1
53d701: 1
50c750: 1
50c5e9: 1
50b653: 1
50ba39: 1
53d880: 1
56ad10: 1
50bc13: 1
50cc82: 1
50cb31: 1
50c003: 1
50be0f: 1
50cfc0: 1
50c800: 1
50c880: 1
50c8c3: 1
50be4d: 1
50c048: 1
50c901: 1
50c980: 1
50b700: 1
50bf00: 1
535142: 1
50ca10: 1
53d6c2: 1
50c798: 1
50c481: 1
50bff0: 1
50c201: 1
44525a: 1
50cd01: 1
50c090: 1
50cd41: 1
50cb47: 1
50cde9: 1
50d202: 1
50cf95: 1
50cd82: 1
50b800: 1
50c400: 1
576950: 1
45e45f: 1
50cbc0: 1
53d782: 1
50bc90: 1
535103: 1
53d803: 1
50bb80: 1
50b642: 1
50c581: 1
50b680: 1
535181: 1
50be81: 1
445253: 1
53d7c1: 1
50ca80: 1
576a01: 1
50cb81: 1
50cc01: 1
50c443: 1
5350c7: 1
50cc43: 1
50d2c0: 1
50b5ec: 1
44529b: 1
535090: 1
44529f: 1
55fa11: 1
45e432: 1
53d742: 1
50bec3: 1
50bbc0: 1
5350c2: 1
50c7c5: 1
50bbd1: 1
50c600: 1
57bc90: 1
50baed: 1
50c503: 1
50bb40: 1
56add2: 1
50d126: 1
50c940: 1
50b902: 1
50c1c9: 1
50bc00: 1
50ccc1: 1
50c4c0: 1
50ca50: 1
50c67e: 1
50c682: 1
55faab: 2
45e22d: 2
55fa3a: 2
45e422: 2
44554f: 2
560fbe: 2
45e2dd: 2
560fcb: 2
4451ec: 2
562ef4: 2
45e3e0: 2
44549f: 2
45e2da: 2
576a60: 2
4451b0: 2
45e3d1: 2
5603f5: 2
562ee0: 2
55f8fb: 2
45e3c9: 2
563540: 2
55fefd: 2
55fa1d: 2
561419: 2
445218: 2
50bb04: 2
45e34b: 2
45e3c1: 2
45e33e: 2
50901a: 2
55f9ff: 2
55fd49: 2
530be2: 2
45e394: 2
45e407: 2
4453b5: 2
445266: 2
44527a: 2
4452bb: 2
44539f: 2
4453a8: 2
4453e6: 2
530bf6: 2
530bea: 2
45e39c: 2
56103f: 2
562ec9: 2
560fdf: 2
45e208: 2
4003f0: 2
4453f8: 2
45e358: 2
44521b: 2
44523f: 2
55fabf: 2
560dae: 2
445407: 2
562f09: 2
530c91: 8
530cb4: 18
530ccd: 51
530ca3: 88
4453e0: 45903
576a7b: 66304
45e300: 66560
45e304: 66560
445440: 90067
PSCL5 TOTAL     ACCESS:      11350  HIT:      11350  MISS:          0  HIT %:        100  MISS %:          0   MPKI: 0
PSCL5 Test counter:          0
PSCL5 LOAD TRANSLATION ACCESS:      11350  HIT:      11350  MISS:          0  HIT %:        100  MISS %:          0   MPKI: 0
PSCL5 PREFETCH  REQUESTED:          0  ISSUED:          0  USEFUL:          0  USELESS:          0
PSCL5 USEFUL LOAD PREFETCHES:          0 PREFETCH ISSUED TO LOWER LEVEL:          0  ACCURACY: -nan
PSCL5 TIMELY PREFETCHES:          0 LATE PREFETCHES: 0 DROPPED PREFETCHES: 0
PSCL5 COMMIT LATE PREFETCHES: 0 MISSED OPPORTUNITY: 0 LATE IN PQ: 0 UNCOVERED: 0
PSCL5 COMMIT LATE MSHR PREFETCHES: 0
PSCL5 MPKI TOTAL: 0 MSHR LATE: 0 PQ LATE: 0 COMMIT LATE: 0 MISSED OPPORTUNITY: 0 UNCOVERED: 0
PSCL5 PREFETCHES SAME FILL-ORIGIN LEVEL: 0 DIFFERENT FILL-ORIGIN LEVEL: 0

PSCL4 TOTAL     ACCESS:      11350  HIT:      11350  MISS:          0  HIT %:        100  MISS %:          0   MPKI: 0
PSCL4 Test counter:          0
PSCL4 LOAD TRANSLATION ACCESS:      11350  HIT:      11350  MISS:          0  HIT %:        100  MISS %:          0   MPKI: 0
PSCL4 PREFETCH  REQUESTED:          0  ISSUED:          0  USEFUL:          0  USELESS:          0
PSCL4 USEFUL LOAD PREFETCHES:          0 PREFETCH ISSUED TO LOWER LEVEL:          0  ACCURACY: -nan
PSCL4 TIMELY PREFETCHES:          0 LATE PREFETCHES: 0 DROPPED PREFETCHES: 0
PSCL4 COMMIT LATE PREFETCHES: 0 MISSED OPPORTUNITY: 0 LATE IN PQ: 0 UNCOVERED: 0
PSCL4 COMMIT LATE MSHR PREFETCHES: 0
PSCL4 MPKI TOTAL: 0 MSHR LATE: 0 PQ LATE: 0 COMMIT LATE: 0 MISSED OPPORTUNITY: 0 UNCOVERED: 0
PSCL4 PREFETCHES SAME FILL-ORIGIN LEVEL: 0 DIFFERENT FILL-ORIGIN LEVEL: 0

PSCL3 TOTAL     ACCESS:      11350  HIT:      11350  MISS:          0  HIT %:        100  MISS %:          0   MPKI: 0
PSCL3 Test counter:          0
PSCL3 LOAD TRANSLATION ACCESS:      11350  HIT:      11350  MISS:          0  HIT %:        100  MISS %:          0   MPKI: 0
PSCL3 PREFETCH  REQUESTED:          0  ISSUED:          0  USEFUL:          0  USELESS:          0
PSCL3 USEFUL LOAD PREFETCHES:          0 PREFETCH ISSUED TO LOWER LEVEL:          0  ACCURACY: -nan
PSCL3 TIMELY PREFETCHES:          0 LATE PREFETCHES: 0 DROPPED PREFETCHES: 0
PSCL3 COMMIT LATE PREFETCHES: 0 MISSED OPPORTUNITY: 0 LATE IN PQ: 0 UNCOVERED: 0
PSCL3 COMMIT LATE MSHR PREFETCHES: 0
PSCL3 MPKI TOTAL: 0 MSHR LATE: 0 PQ LATE: 0 COMMIT LATE: 0 MISSED OPPORTUNITY: 0 UNCOVERED: 0
PSCL3 PREFETCHES SAME FILL-ORIGIN LEVEL: 0 DIFFERENT FILL-ORIGIN LEVEL: 0

PSCL2 TOTAL     ACCESS:      11350  HIT:      11334  MISS:         16  HIT %:     99.859  MISS %:   0.140969   MPKI: 8e-05
PSCL2 Test counter:          0
PSCL2 LOAD TRANSLATION ACCESS:      11350  HIT:      11334  MISS:         16  HIT %:     99.859  MISS %:   0.140969   MPKI: 8e-05
PSCL2 PREFETCH  REQUESTED:          0  ISSUED:          0  USEFUL:          0  USELESS:          0
PSCL2 USEFUL LOAD PREFETCHES:          0 PREFETCH ISSUED TO LOWER LEVEL:          0  ACCURACY: -nan
PSCL2 TIMELY PREFETCHES:          0 LATE PREFETCHES: 0 DROPPED PREFETCHES: 0
PSCL2 COMMIT LATE PREFETCHES: 0 MISSED OPPORTUNITY: 0 LATE IN PQ: 0 UNCOVERED: 0
PSCL2 COMMIT LATE MSHR PREFETCHES: 0
PSCL2 MPKI TOTAL: 0 MSHR LATE: 0 PQ LATE: 0 COMMIT LATE: 0 MISSED OPPORTUNITY: 0 UNCOVERED: 0
PSCL2 PREFETCHES SAME FILL-ORIGIN LEVEL: 0 DIFFERENT FILL-ORIGIN LEVEL: 0

LLC TOTAL     ACCESS:     783895  HIT:     222465  MISS:     561430  HIT %:    28.3794  MISS %:    71.6206   MPKI: 2.80715
LLC Test counter:          0
LLC LOAD      ACCESS:     335798  HIT:          2  MISS:     335796  HIT %: 0.000595596  MISS %:    99.9994   MPKI: 1.67898
LLC RFO       ACCESS:     223127  HIT:          1  MISS:     223126  HIT %: 0.000448175  MISS %:    99.9996   MPKI: 1.11563
LLC WRITEBACK ACCESS:     222862  HIT:     222457  MISS:        405  HIT %:    99.8183  MISS %:   0.181727   MPKI: 0.002025
LLC LOAD TRANSLATION ACCESS:       2108  HIT:          5  MISS:       2103  HIT %:   0.237192  MISS %:    99.7628   MPKI: 0.010515
LLC PREFETCH  REQUESTED:          0  ISSUED:          0  USEFUL:          0  USELESS:          0
LLC USEFUL LOAD PREFETCHES:          0 PREFETCH ISSUED TO LOWER LEVEL:          0  ACCURACY: -nan
LLC TIMELY PREFETCHES:          0 LATE PREFETCHES: 0 DROPPED PREFETCHES: 0
LLC COMMIT LATE PREFETCHES: 0 MISSED OPPORTUNITY: 0 LATE IN PQ: 0 UNCOVERED: 0
LLC COMMIT LATE MSHR PREFETCHES: 0
LLC MPKI TOTAL: 1.67898 MSHR LATE: 0 PQ LATE: 0 COMMIT LATE: 0 MISSED OPPORTUNITY: 0 UNCOVERED: 0
LLC PREFETCHES SAME FILL-ORIGIN LEVEL: 0 DIFFERENT FILL-ORIGIN LEVEL: 0
LLC AVERAGE MISS LATENCY: 170.343 cycles
LLC AVERAGE MISS LATENCY LOAD: 173.968 cycles
LLC AVERAGE MISS LATENCY PREFETCH: -nan cycles
LLC AVERAGE MSHR OCCUPANCY: 0.783332
LLC MSHR FULL: 0
LLC RQ	ACCESS:     561033	FORWARD:          0	MERGED:          0	TO_CACHE:     561033
LLC WQ	ACCESS:     222862	FORWARD:          0	MERGED:          0	TO_CACHE:     222862

LLC Dense regions hint to LLC: 0
57a313: 1
50cd2a: 1
50c713: 1
53d663: 1
50b8c1: 1
53d680: 1
50b883: 1
53d640: 1
50b5e0: 1
57bcc0: 1
50b601: 1
56ae01: 1
50bcce: 1
56ad41: 1
57a2f0: 1
50b840: 1
50ba42: 1
50ce01: 1
50c841: 1
50bad0: 1
50c540: 1
50c6c3: 1
53d8c0: 1
55fd60: 1
50b75c: 1
53d66a: 1
57a306: 1
53d840: 1
530ed8: 1
50b6c2: 1
50d160: 1
50bc50: 1
53d701: 1
50c750: 1
50c5e9: 1
50b653: 1
50ba39: 1
53d880: 1
56ad10: 1
50bc13: 1
50cc82: 1
50cb31: 1
50c003: 1
50be0f: 1
50cfc0: 1
50c800: 1
50c880: 1
50c8c3: 1
50be4d: 1
50c048: 1
50c901: 1
50c980: 1
50b700: 1
50bf00: 1
535142: 1
50ca10: 1
53d6c2: 1
50c798: 1
50c481: 1
50bff0: 1
50c201: 1
44525a: 1
50cd01: 1
50c090: 1
50cd41: 1
50cb47: 1
50cde9: 1
50d202: 1
50cf95: 1
50cd82: 1
50b800: 1
50c400: 1
576950: 1
45e45f: 1
50cbc0: 1
53d782: 1
50bc90: 1
535103: 1
53d803: 1
50bb80: 1
50b642: 1
50c581: 1
50b680: 1
535181: 1
50be81: 1
445253: 1
53d7c1: 1
50ca80: 1
576a01: 1
50cb81: 1
50cc01: 1
50c443: 1
5350c7: 1
50cc43: 1
50d2c0: 1
50b5ec: 1
44529b: 1
535090: 1
44529f: 1
55fa11: 1
45e432: 1
53d742: 1
50bec3: 1
50bbc0: 1
5350c2: 1
50c7c5: 1
50bbd1: 1
50c600: 1
57bc90: 1
50baed: 1
50c503: 1
50bb40: 1
56add2: 1
50d126: 1
50c940: 1
50b902: 1
50c1c9: 1
50bc00: 1
50ccc1: 1
50c4c0: 1
50ca50: 1
50c67e: 1
50c682: 1
55faab: 2
45e22d: 2
55fa3a: 2
45e422: 2
44554f: 2
560fbe: 2
45e2dd: 2
560fcb: 2
4451ec: 2
562ef4: 2
45e3e0: 2
44549f: 2
45e2da: 2
576a60: 2
4451b0: 2
45e3d1: 2
5603f5: 2
562ee0: 2
55f8fb: 2
45e3c9: 2
563540: 2
55fefd: 2
55fa1d: 2
561419: 2
445218: 2
50bb04: 2
45e34b: 2
45e3c1: 2
45e33e: 2
50901a: 2
55f9ff: 2
55fd49: 2
530be2: 2
45e394: 2
45e407: 2
4453b5: 2
445266: 2
44527a: 2
4452bb: 2
44539f: 2
4453a8: 2
4453e6: 2
530bf6: 2
530bea: 2
45e39c: 2
56103f: 2
562ec9: 2
560fdf: 2
45e208: 2
4003f0: 2
4453f8: 2
45e358: 2
44521b: 2
44523f: 2
55fabf: 2
560dae: 2
445407: 2
562f09: 2
530c91: 8
530cb4: 18
530ccd: 50
530ca3: 87
4453e0: 45903
576a7b: 66304
45e300: 66560
45e304: 66560
445440: 90067

RAW hits: 5739396
Loads Generated: 45770345
Loads sent to L1D: 40030949
Stores Generated: 21712370
Stores sent to L1D: 21712373
Major fault: 0 Minor fault: 7557
Allocated PAGES: 7557
Total Load insts: 49315292
Total Non-spec loads: 12689326
Percentage of speculative loads: 74.269
L1D response latency: 219.201 cycles
Load retirement latency: 261.818 cycles


DRAM Statistics
 CHANNEL 0
 RQ ROW_BUFFER_HIT:      92053  ROW_BUFFER_MISS:     468972
 DBUS_CONGESTED:         19
 WQ ROW_BUFFER_HIT:     102191  ROW_BUFFER_MISS:     119257  FULL:          0

 AVG_CONGESTED_CYCLE: 5
 All warmup complete: 2
Channel 0 Bank busy for read cycles: 0
Channel 0 Bank busy for write cycles: 0
Channel 0
Rank 0
0banks busy for read cycles: 297869543
0banks busy for write cycles: 78009
1banks busy for read cycles: 40566819
1banks busy for write cycles: 13163031
2banks busy for read cycles: 8521746
2banks busy for write cycles: 1355631
3banks busy for read cycles: 5750784
3banks busy for write cycles: 634684
4banks busy for read cycles: 31618
4banks busy for write cycles: 668993
5banks busy for read cycles: 4131
5banks busy for write cycles: 371148
6banks busy for read cycles: 5
6banks busy for write cycles: 186661
7banks busy for read cycles: 0
7banks busy for write cycles: 419875
8banks busy for read cycles: 0
8banks busy for write cycles: 4792843

CPU 0 Branch Prediction Accuracy: 99.9797% MPKI: 0.020805 Average ROB Occupancy at Mispredict: 126.297
Branch types
NOT_BRANCH: 179514591 89.7573%
BRANCH_DIRECT_JUMP: 1424895 0.712448%
BRANCH_INDIRECT: 16 8e-06%
BRANCH_CONDITIONAL: 13360262 6.68013%
BRANCH_DIRECT_CALL: 2849960 1.42498%
BRANCH_INDIRECT_CALL: 0 0%
BRANCH_RETURN: 2849960 1.42498%
BRANCH_OTHER: 0 0%

DRAM PAGES: 1048576
Allocated PAGES: 7557
