
*** ChampSim Multicore Out-of-Order Simulator ***

Warmup Instructions: 50000000
Simulation Instructions: 200000000
Number of CPUs: 1
LLC sets: 2048
LLC ways: 16
L0D sets: 16
L0D ways: 2
ROB size: 352
LQ size: 128
SQ size: 72
Secure Berti: OFF
Berti: OFF
Berti Fill: OFF
On commit prefetching: OFF
Hit-based filter: ON
Time-guarding: ON
Free-slotting: ON
Leap-frogging: ON
Train prefetcher on L0D bypass: OFF
No translation penalty for prefetchers: OFF
Prefetch to L0D only: OFF
Prefetch to L1D only: OFF
Clean evictions: ON
Commit loads: ON
Commit write: ON
Fill commit loads to L2C, LLC: ON
DRAM IO FREQUENCY: 6400
ROB SIZE: 352
Off-chip DRAM Size: 4096 MB Channels: 1 Width: 64-bit Data Rate: 6400 MT/s
CPU 0 runs /home/sumon/secure_berti/GhostMinion/../../traces/gap/bc-5.trace.gz
.gz
BTB has LRU replacement policy
ITLB has LRU replacement policy
DTLB has LRU replacement policy
STLB has LRU replacement policy
L1I has LRU replacement policy
L0D has LRU replacement policy
IP Table Entries: 1024
CSPT Entries: 128
RR_ENTRIES: 32
RST_ENTRIES: 8
L1D has LRU replacement policy
L2C has LRU replacement policy
LLC has LRU replacement policy
Heartbeat CPU 0 instructions: 10000002 cycles: 3927111 heartbeat IPC: 2.5464 cumulative IPC: 2.5464 (Simulation time: 0 hr 0 min 50 sec) 
Heartbeat CPU 0 instructions: 20000001 cycles: 7463408 heartbeat IPC: 2.82782 cumulative IPC: 2.67974 (Simulation time: 0 hr 1 min 45 sec) 
Heartbeat CPU 0 instructions: 30000001 cycles: 11034656 heartbeat IPC: 2.80014 cumulative IPC: 2.71871 (Simulation time: 0 hr 2 min 40 sec) 
Heartbeat CPU 0 instructions: 40000003 cycles: 14548809 heartbeat IPC: 2.84564 cumulative IPC: 2.74937 (Simulation time: 0 hr 3 min 33 sec) 
Heartbeat CPU 0 instructions: 50000000 cycles: 18194603 heartbeat IPC: 2.74289 cumulative IPC: 2.74807 (Simulation time: 0 hr 4 min 26 sec) 

Warmup complete CPU 0 instructions: 50000004 cycles: 18194604 (Simulation time: 0 hr 4 min 26 sec) 

Heartbeat CPU 0 instructions: 60000000 cycles: 75664767 heartbeat IPC: 0.174003 cumulative IPC: 0.174003 (Simulation time: 0 hr 5 min 45 sec) 
Heartbeat CPU 0 instructions: 70000001 cycles: 131965984 heartbeat IPC: 0.177616 cumulative IPC: 0.175791 (Simulation time: 0 hr 7 min 1 sec) 
Heartbeat CPU 0 instructions: 80000003 cycles: 190465983 heartbeat IPC: 0.17094 cumulative IPC: 0.174144 (Simulation time: 0 hr 8 min 18 sec) 
Heartbeat CPU 0 instructions: 90000000 cycles: 248050474 heartbeat IPC: 0.173658 cumulative IPC: 0.174022 (Simulation time: 0 hr 9 min 33 sec) 
Heartbeat CPU 0 instructions: 100000000 cycles: 305613475 heartbeat IPC: 0.173723 cumulative IPC: 0.173962 (Simulation time: 0 hr 10 min 49 sec) 
Heartbeat CPU 0 instructions: 110000000 cycles: 362464299 heartbeat IPC: 0.175899 cumulative IPC: 0.174282 (Simulation time: 0 hr 12 min 5 sec) 
Heartbeat CPU 0 instructions: 120000001 cycles: 419353427 heartbeat IPC: 0.175781 cumulative IPC: 0.174494 (Simulation time: 0 hr 13 min 21 sec) 
Heartbeat CPU 0 instructions: 130000001 cycles: 475797633 heartbeat IPC: 0.177166 cumulative IPC: 0.174824 (Simulation time: 0 hr 14 min 37 sec) 
Heartbeat CPU 0 instructions: 140000002 cycles: 520862744 heartbeat IPC: 0.221901 cumulative IPC: 0.179045 (Simulation time: 0 hr 15 min 49 sec) 
Heartbeat CPU 0 instructions: 150000002 cycles: 555529686 heartbeat IPC: 0.288459 cumulative IPC: 0.186104 (Simulation time: 0 hr 16 min 57 sec) 
Heartbeat CPU 0 instructions: 160000001 cycles: 590412785 heartbeat IPC: 0.286672 cumulative IPC: 0.192234 (Simulation time: 0 hr 18 min 4 sec) 
Heartbeat CPU 0 instructions: 170000001 cycles: 625152273 heartbeat IPC: 0.287857 cumulative IPC: 0.197707 (Simulation time: 0 hr 19 min 11 sec) 
Heartbeat CPU 0 instructions: 180000003 cycles: 659967894 heartbeat IPC: 0.287227 cumulative IPC: 0.202564 (Simulation time: 0 hr 20 min 19 sec) 
Heartbeat CPU 0 instructions: 190000002 cycles: 694634962 heartbeat IPC: 0.288458 cumulative IPC: 0.206966 (Simulation time: 0 hr 21 min 25 sec) 
Heartbeat CPU 0 instructions: 200000002 cycles: 729366888 heartbeat IPC: 0.28792 cumulative IPC: 0.210919 (Simulation time: 0 hr 22 min 31 sec) 
Heartbeat CPU 0 instructions: 210000003 cycles: 763995653 heartbeat IPC: 0.288777 cumulative IPC: 0.214534 (Simulation time: 0 hr 23 min 35 sec) 
Heartbeat CPU 0 instructions: 220000000 cycles: 799230139 heartbeat IPC: 0.283813 cumulative IPC: 0.21766 (Simulation time: 0 hr 24 min 37 sec) 
Heartbeat CPU 0 instructions: 230000002 cycles: 835039451 heartbeat IPC: 0.279257 cumulative IPC: 0.22036 (Simulation time: 0 hr 25 min 38 sec) 
Heartbeat CPU 0 instructions: 240000002 cycles: 870825888 heartbeat IPC: 0.279435 cumulative IPC: 0.22284 (Simulation time: 0 hr 26 min 39 sec) 
Heartbeat CPU 0 instructions: 250000002 cycles: 906942889 heartbeat IPC: 0.276878 cumulative IPC: 0.225036 (Simulation time: 0 hr 27 min 38 sec) 
Finished CPU 0 instructions: 200000002 cycles: 888748286 cumulative IPC: 0.225036 (Simulation time: 0 hr 27 min 38 sec) 
 Instruction ID: 250000377

ChampSim completed all CPUs

Region of Interest Statistics

CPU 0 cumulative IPC: 0.225036 instructions: 200000002 cycles: 888748286
ITLB SPEC fills:          0  NON-SPEC fills:          0
ITLB Test counter :          0
ITLB Leapfrog:          0
ITLB MSHR merge:          0
ITLB TOTAL     ACCESS:   33998960  HIT:   33998960  MISS:          0  HIT %:        100  MISS %:          0   MPKI: 0
ITLB LOAD TRANSLATION NON_SPEC    ACCESS:   33998960  HIT:   33998960  MISS:          0  HIT %:        100  MISS %:          0   MPKI: 0
ITLB PREFETCH  REQUESTED:          0  ISSUED:          0  USEFUL:          0  USELESS:          0
ITLB USEFUL LOAD PREFETCHES:          0 PREFETCH ISSUED TO LOWER LEVEL:          0  ACCURACY: -nan
ITLB TIMELY PREFETCHES:          0 LATE PREFETCHES: 0 DROPPED PREFETCHES: 0
ITLB COMMIT LATE PREFETCHES: 0 MISSED OPPORTUNITY: 0 LATE IN PQ: 0 UNCOVERED: 0
ITLB COMMIT LATE MSHR PREFETCHES: 0
ITLB MPKI TOTAL: 0 MSHR LATE: 0 PQ LATE: 0 COMMIT LATE: 0 MISSED OPPORTUNITY: 0 UNCOVERED: 0
ITLB PREFETCHES SAME FILL-ORIGIN LEVEL: 0 DIFFERENT FILL-ORIGIN LEVEL: 0
ITLB AVERAGE MISS LATENCY: -nan cycles
ITLB AVERAGE MISS LATENCY LOAD: -nan cycles
ITLB AVERAGE MISS LATENCY PREFETCH: -nan cycles
ITLB AVERAGE MSHR OCCUPANCY: 0
ITLB MSHR FULL: 0
ITLB RQ	ACCESS:   34307124	FORWARD:          0	MERGED:     308164	TO_CACHE:   33998960

DTLB SPEC fills:          0  NON-SPEC fills:          0
DTLB Test counter :          0
DTLB Leapfrog:          0
DTLB MSHR merge:          0
DTLB TOTAL     ACCESS:   41937580  HIT:   33749464  MISS:    8188116  HIT %:    80.4755  MISS %:    19.5245   MPKI: 40.9406
DTLB LOAD TRANSLATION NON_SPEC    ACCESS:   41937580  HIT:   33749464  MISS:    8188116  HIT %:    80.4755  MISS %:    19.5245   MPKI: 40.9406
DTLB PREFETCH  REQUESTED:          0  ISSUED:          0  USEFUL:          0  USELESS:          0
DTLB USEFUL LOAD PREFETCHES:          0 PREFETCH ISSUED TO LOWER LEVEL:          0  ACCURACY: -nan
DTLB TIMELY PREFETCHES:          0 LATE PREFETCHES: 0 DROPPED PREFETCHES: 0
DTLB COMMIT LATE PREFETCHES: 0 MISSED OPPORTUNITY: 0 LATE IN PQ: 0 UNCOVERED: 0
DTLB COMMIT LATE MSHR PREFETCHES: 0
DTLB MPKI TOTAL: 0 MSHR LATE: 0 PQ LATE: 0 COMMIT LATE: 0 MISSED OPPORTUNITY: 0 UNCOVERED: 0
DTLB PREFETCHES SAME FILL-ORIGIN LEVEL: 0 DIFFERENT FILL-ORIGIN LEVEL: 0
DTLB AVERAGE MISS LATENCY: 30.8532 cycles
DTLB AVERAGE MISS LATENCY LOAD: -nan cycles
DTLB AVERAGE MISS LATENCY PREFETCH: -nan cycles
DTLB AVERAGE MSHR OCCUPANCY: 0.791747
DTLB MSHR FULL: 0.0253467
DTLB RQ	ACCESS:   47702630	FORWARD:          0	MERGED:    4273610	TO_CACHE:   43429020

STLB SPEC fills:          0  NON-SPEC fills:          0
STLB Test counter :          0
STLB Leapfrog:          0
STLB MSHR merge:          0
STLB TOTAL     ACCESS:   20927683  HIT:   19527039  MISS:    1400644  HIT %:    93.3072  MISS %:    6.69278   MPKI: 7.00322
STLB LOAD TRANSLATION NON_SPEC    ACCESS:    8188116  HIT:    6787691  MISS:    1400425  HIT %:    82.8969  MISS %:    17.1031   MPKI: 7.00212
STLB TRANSLATION FROM L1D PREFETCHER NON_SPEC    ACCESS:   12739567  HIT:   12739348  MISS:        219  HIT %:    99.9983  MISS %: 0.00171905   MPKI: 0.001095
STLB PREFETCH  REQUESTED:          0  ISSUED:          0  USEFUL:        193  USELESS:         26
STLB USEFUL LOAD PREFETCHES:        193 PREFETCH ISSUED TO LOWER LEVEL:          0  ACCURACY: inf
STLB TIMELY PREFETCHES:        193 LATE PREFETCHES: 0 DROPPED PREFETCHES: 0
STLB COMMIT LATE PREFETCHES: 0 MISSED OPPORTUNITY: 0 LATE IN PQ: 0 UNCOVERED: 0
STLB COMMIT LATE MSHR PREFETCHES: 0
STLB MPKI TOTAL: 0 MSHR LATE: 0 PQ LATE: 0 COMMIT LATE: 0 MISSED OPPORTUNITY: 0 UNCOVERED: 0
STLB PREFETCHES SAME FILL-ORIGIN LEVEL: 0 DIFFERENT FILL-ORIGIN LEVEL: 0
STLB AVERAGE MISS LATENCY: 126.181 cycles
STLB AVERAGE MISS LATENCY LOAD: -nan cycles
STLB AVERAGE MISS LATENCY PREFETCH: -nan cycles
STLB AVERAGE MSHR OCCUPANCY: 0.262471
STLB MSHR FULL: 0
STLB RQ	ACCESS:   26765646	FORWARD:          0	MERGED:    5837848	TO_CACHE:   20927798

STLB Hit, L1D data hit: 0
STLB Hit, L2C data hit: 0
STLB Hit, LLC data hit: 0
STLB Hit, LLC data miss: 0
STLB STLB hints to L2: 0
L0D SPEC fills:   25199089  NON-SPEC fills:          0
L0D TimeGuard Request with older TS:     500622 Restricted eviction:     369860 read:       1130
L0D Test counter :          0
L0D Leapfrog:          0
L0D MSHR merge:    1076656
L0D TOTAL     ACCESS:   39120799  HIT:   11447200  MISS:   27673599  HIT %:    29.2612  MISS %:    70.7388   MPKI: 138.368
L0D LOAD      TOTAL       ACCESS:   39120799  HIT:   11447200  MISS:   27673599  HIT %:    29.2612  MISS %:    70.7388   MPKI: 138.368
L0D LOAD      NON_SPEC    ACCESS:    2107034  HIT:       2283  MISS:    2104751  HIT %:   0.108351  MISS %:    99.8916   MPKI: 10.5238
L0D LOAD      SPEC        ACCESS:   37013765  HIT:   11444917  MISS:   25568848  HIT %:    30.9207  MISS %:    69.0793   MPKI: 127.844
L0D PREFETCH  REQUESTED:          0  ISSUED:          0  USEFUL:          0  USELESS:          0
L0D USEFUL LOAD PREFETCHES:          0 PREFETCH ISSUED TO LOWER LEVEL:          0  ACCURACY: -nan
L0D TIMELY PREFETCHES:          0 LATE PREFETCHES: 0 DROPPED PREFETCHES: 0
L0D COMMIT LATE PREFETCHES: 0 MISSED OPPORTUNITY: 0 LATE IN PQ: 0 UNCOVERED: 0
L0D COMMIT LATE MSHR PREFETCHES: 0
L0D MPKI TOTAL: 143.751 MSHR LATE: 0 PQ LATE: 0 COMMIT LATE: 0 MISSED OPPORTUNITY: 0 UNCOVERED: 0
L0D PREFETCHES SAME FILL-ORIGIN LEVEL: 0 DIFFERENT FILL-ORIGIN LEVEL: 0
L0D AVERAGE MISS LATENCY: 93.5183 cycles
L0D AVERAGE MISS LATENCY LOAD: 93.5183 cycles
L0D AVERAGE MISS LATENCY PREFETCH: -nan cycles
L0D AVERAGE MSHR OCCUPANCY: 5.75688
L0D MSHR FULL: 0.568832
L0D RQ	ACCESS:   47010187	FORWARD:          0	MERGED:    6812739	TO_CACHE:   40197448
L0D WQ	ACCESS:    7505182	FORWARD:          0	MERGED:          0	TO_CACHE:    7505182

L1D SPEC fills:          0  NON-SPEC fills:     953218
L1D Test counter :          0
L1D Leapfrog:          0
L1D MSHR merge:     279121
L1D TOTAL     ACCESS:   65874784  HIT:   16590380  MISS:   49284404  HIT %:    25.1847  MISS %:    74.8153   MPKI: 246.422
L1D LOAD      TOTAL       ACCESS:   27667739  HIT:   10934577  MISS:   16733162  HIT %:     39.521  MISS %:     60.479   MPKI: 83.6658
L1D LOAD      NON_SPEC    ACCESS:    2101172  HIT:    1147954  MISS:     953218  HIT %:     54.634  MISS %:     45.366   MPKI: 4.76609
L1D LOAD      SPEC        ACCESS:   25566567  HIT:    9786623  MISS:   15779944  HIT %:     38.279  MISS %:     61.721   MPKI: 78.8997
L1D RFO       NON_SPEC    ACCESS:    3962720  HIT:    3925763  MISS:      36957  HIT %:    99.0674  MISS %:   0.932617   MPKI: 0.184785
L1D PREFETCH  NON_SPEC    ACCESS:   17814258  HIT:    1031170  MISS:   16783088  HIT %:    5.78845  MISS %:    94.2115   MPKI: 83.9154
L1D COMMIT LOAD NON_SPEC    ACCESS:    1016908  HIT:     618575  MISS:     398333  HIT %:     60.829  MISS %:     39.171   MPKI: 1.99166
L1D COMMIT WRITE NON_SPEC    ACCESS:   15413159  HIT:      80295  MISS:   15332864  HIT %:   0.520951  MISS %:     99.479   MPKI: 76.6643
L1D PREFETCH  REQUESTED:   18577604  ISSUED:   18577531  USEFUL:    1005388  USELESS:   15777687
L1D USEFUL LOAD PREFETCHES:    1005388 PREFETCH ISSUED TO LOWER LEVEL:   17056604  ACCURACY: 5.89442
L1D TIMELY PREFETCHES:    1005388 LATE PREFETCHES: 273516 DROPPED PREFETCHES: 0
L1D COMMIT LATE PREFETCHES: 0 MISSED OPPORTUNITY: 0 LATE IN PQ: 0 UNCOVERED: 0
L1D COMMIT LATE MSHR PREFETCHES: 0
L1D MPKI TOTAL: 83.6951 MSHR LATE: 1.36758 PQ LATE: 0 COMMIT LATE: 0 MISSED OPPORTUNITY: 0 UNCOVERED: 0
L1D PREFETCHES SAME FILL-ORIGIN LEVEL: 17056604 DIFFERENT FILL-ORIGIN LEVEL: 0
L1D AVERAGE MISS LATENCY: 109.308 cycles
L1D AVERAGE MISS LATENCY LOAD: 137.875 cycles
L1D AVERAGE MISS LATENCY PREFETCH: 181.065 cycles
L1D AVERAGE MSHR OCCUPANCY: 7.84102
L1D MSHR FULL: 0.215516
L1D RQ	ACCESS:   28821049	FORWARD:          0	MERGED:     124011	TO_CACHE:   28696992
L1D WQ	ACCESS:   22918350	FORWARD:         46	MERGED:    3459678	TO_CACHE:   19458672
L1D PQ	ACCESS:   18577531	FORWARD:          0	MERGED:          0	TO_CACHE:   18577531

L1D UNIQUE REGIONS ACCESSED: 0
L1D REGIONS CONFLICTS: 0
L1D Cross Page Prefetch Requests: 0
L1D Same Page Prefetch Requests: 22414600
L1D ROI Sum of L1D PQ occupancy: 275805729
L1D PREFETCHES PUSHED FROM L2C: 0
L1I SPEC fills:          0  NON-SPEC fills:          0
L1I Test counter :          0
L1I Leapfrog:          0
L1I MSHR merge:          0
L1I TOTAL     ACCESS:   34307122  HIT:   34307122  MISS:          0  HIT %:        100  MISS %:          0   MPKI: 0
L1I LOAD      TOTAL       ACCESS:   34307122  HIT:   34307122  MISS:          0  HIT %:        100  MISS %:          0   MPKI: 0
L1I LOAD      NON_SPEC    ACCESS:   34307122  HIT:   34307122  MISS:          0  HIT %:        100  MISS %:          0   MPKI: 0
L1I PREFETCH  REQUESTED:          0  ISSUED:          0  USEFUL:          0  USELESS:          0
L1I USEFUL LOAD PREFETCHES:          0 PREFETCH ISSUED TO LOWER LEVEL:          0  ACCURACY: -nan
L1I TIMELY PREFETCHES:          0 LATE PREFETCHES: 0 DROPPED PREFETCHES: 0
L1I COMMIT LATE PREFETCHES: 0 MISSED OPPORTUNITY: 0 LATE IN PQ: 0 UNCOVERED: 0
L1I COMMIT LATE MSHR PREFETCHES: 0
L1I MPKI TOTAL: 0 MSHR LATE: 0 PQ LATE: 0 COMMIT LATE: 0 MISSED OPPORTUNITY: 0 UNCOVERED: 0
L1I PREFETCHES SAME FILL-ORIGIN LEVEL: 0 DIFFERENT FILL-ORIGIN LEVEL: 0
L1I AVERAGE MISS LATENCY: -nan cycles
L1I AVERAGE MISS LATENCY LOAD: -nan cycles
L1I AVERAGE MISS LATENCY PREFETCH: -nan cycles
L1I AVERAGE MSHR OCCUPANCY: 0
L1I MSHR FULL: 0
L1I RQ	ACCESS:   54238038	FORWARD:          0	MERGED:   19930914	TO_CACHE:   34307124

BTB SPEC fills:          0  NON-SPEC fills:          0
BTB Test counter :          0
BTB Leapfrog:          0
BTB MSHR merge:          0
BTB TOTAL     ACCESS:   41913169  HIT:   41913127  MISS:         42  HIT %:    99.9999  MISS %: 0.000100207   MPKI: 0.00021
BTB BRANCH_DIRECT_JUMP	ACCESS:     294369  HIT:     294357  MISS:         12
BTB BRANCH_INDIRECT	ACCESS:          0  HIT:          0  MISS:          0
BTB BRANCH_CONDITIONAL	ACCESS:   41618756  HIT:   41618741  MISS:         15
BTB BRANCH_DIRECT_CALL	ACCESS:         22  HIT:         15  MISS:          7
BTB BRANCH_INDIRECT_CALL	ACCESS:          0  HIT:          0  MISS:          0
BTB BRANCH_RETURN	ACCESS:         22  HIT:         14  MISS:          8
BTB BRANCH_OTHER ACCESS:          0  HIT:          0  MISS:          0

L2C SPEC fills:          0  NON-SPEC fills:     829274
L2C Test counter :          0
L2C Leapfrog:          0
L2C MSHR merge:          0
L2C TOTAL     ACCESS:   54532567  HIT:   12001272  MISS:   42531295  HIT %:    22.0075  MISS %:    77.9925   MPKI: 212.656
L2C LOAD      TOTAL       ACCESS:   16459207  HIT:    2363860  MISS:   14095347  HIT %:    14.3619  MISS %:    85.6381   MPKI: 70.4767
L2C LOAD      NON_SPEC    ACCESS:     944735  HIT:     115461  MISS:     829274  HIT %:    12.2215  MISS %:    87.7785   MPKI: 4.14637
L2C LOAD      SPEC        ACCESS:   15514472  HIT:    2248399  MISS:   13266073  HIT %:    14.4923  MISS %:    85.5077   MPKI: 66.3304
L2C RFO       NON_SPEC    ACCESS:      36946  HIT:       3207  MISS:      33739  HIT %:    8.68024  MISS %:    91.3198   MPKI: 0.168695
L2C PREFETCH  NON_SPEC    ACCESS:   17056595  HIT:    2171880  MISS:   14884715  HIT %:    12.7334  MISS %:    87.2666   MPKI: 74.4236
L2C WRITEBACK NON_SPEC    ACCESS:     325919  HIT:     325490  MISS:        429  HIT %:    99.8684  MISS %:   0.131628   MPKI: 0.002145
L2C CLEAN_EVICTION NON_SPEC    ACCESS:   13252644  HIT:     296156  MISS:   12956488  HIT %:    2.23469  MISS %:    97.7653   MPKI: 64.7824
L2C COMMIT LOAD NON_SPEC    ACCESS:     398079  HIT:     100874  MISS:     297205  HIT %:    25.3402  MISS %:    74.6598   MPKI: 1.48602
L2C LOAD TRANSLATION NON_SPEC    ACCESS:    7002082  HIT:    6738738  MISS:     263344  HIT %:    96.2391  MISS %:    3.76094   MPKI: 1.31672
L2C TRANSLATION FROM L1D PREFETCHER NON_SPEC    ACCESS:       1095  HIT:       1067  MISS:         28  HIT %:    97.4429  MISS %:    2.55708   MPKI: 0.00014
L2C PREFETCH  REQUESTED:          0  ISSUED:          0  USEFUL:     411392  USELESS:   14473243
L2C USEFUL LOAD PREFETCHES:     411392 PREFETCH ISSUED TO LOWER LEVEL:   14884716  ACCURACY: 2.76386
L2C TIMELY PREFETCHES:     411392 LATE PREFETCHES: 0 DROPPED PREFETCHES: 0
L2C COMMIT LATE PREFETCHES: 0 MISSED OPPORTUNITY: 0 LATE IN PQ: 0 UNCOVERED: 0
L2C COMMIT LATE MSHR PREFETCHES: 0
L2C MPKI TOTAL: 70.4767 MSHR LATE: 0 PQ LATE: 0 COMMIT LATE: 0 MISSED OPPORTUNITY: 0 UNCOVERED: 0
L2C PREFETCHES SAME FILL-ORIGIN LEVEL: 0 DIFFERENT FILL-ORIGIN LEVEL: 0
L2C AVERAGE MISS LATENCY: 116.545 cycles
L2C AVERAGE MISS LATENCY LOAD: 145.722 cycles
L2C AVERAGE MISS LATENCY PREFETCH: 191.122 cycles
L2C AVERAGE MSHR OCCUPANCY: 6.04439
L2C MSHR FULL: 0
L2C RQ	ACCESS:   23898112	FORWARD:          0	MERGED:          0	TO_CACHE:   23897408
L2C WQ	ACCESS:   13578563	FORWARD:        713	MERGED:          0	TO_CACHE:   13578563
L2C PQ	ACCESS:   17056604	FORWARD:          0	MERGED:          0	TO_CACHE:   17056595

L2C Instructions Evicting Data 0
L2C Translations Evicting Data 260034
L2C Data Evicting Data 15901451
L2C Instructions Evicting Instructions 0
L2C Translations Evicting Instructions 0
L2C Data Evicting Instructions 0
L2C Instructions Evicting Translations 0
L2C Translations Evicting Translations 3338
L2C Data Evicting Translations 143482
L2C Dense regions hint from L2: 0
PSCL5 SPEC fills:          0  NON-SPEC fills:          0
PSCL5 Test counter :          0
PSCL5 Leapfrog:          0
PSCL5 MSHR merge:          0
PSCL5 TOTAL     ACCESS:          0  HIT:          0  MISS:          0  HIT %:       -nan  MISS %:       -nan   MPKI: 0
PSCL5 PREFETCH  REQUESTED:          0  ISSUED:          0  USEFUL:          0  USELESS:          0
PSCL5 USEFUL LOAD PREFETCHES:          0 PREFETCH ISSUED TO LOWER LEVEL:          0  ACCURACY: -nan
PSCL5 TIMELY PREFETCHES:          0 LATE PREFETCHES: 0 DROPPED PREFETCHES: 0
PSCL5 COMMIT LATE PREFETCHES: 0 MISSED OPPORTUNITY: 0 LATE IN PQ: 0 UNCOVERED: 0
PSCL5 COMMIT LATE MSHR PREFETCHES: 0
PSCL5 MPKI TOTAL: 0 MSHR LATE: 0 PQ LATE: 0 COMMIT LATE: 0 MISSED OPPORTUNITY: 0 UNCOVERED: 0
PSCL5 PREFETCHES SAME FILL-ORIGIN LEVEL: 0 DIFFERENT FILL-ORIGIN LEVEL: 0

PSCL4 SPEC fills:          0  NON-SPEC fills:          0
PSCL4 Test counter :          0
PSCL4 Leapfrog:          0
PSCL4 MSHR merge:          0
PSCL4 TOTAL     ACCESS:          0  HIT:          0  MISS:          0  HIT %:       -nan  MISS %:       -nan   MPKI: 0
PSCL4 PREFETCH  REQUESTED:          0  ISSUED:          0  USEFUL:          0  USELESS:          0
PSCL4 USEFUL LOAD PREFETCHES:          0 PREFETCH ISSUED TO LOWER LEVEL:          0  ACCURACY: -nan
PSCL4 TIMELY PREFETCHES:          0 LATE PREFETCHES: 0 DROPPED PREFETCHES: 0
PSCL4 COMMIT LATE PREFETCHES: 0 MISSED OPPORTUNITY: 0 LATE IN PQ: 0 UNCOVERED: 0
PSCL4 COMMIT LATE MSHR PREFETCHES: 0
PSCL4 MPKI TOTAL: 0 MSHR LATE: 0 PQ LATE: 0 COMMIT LATE: 0 MISSED OPPORTUNITY: 0 UNCOVERED: 0
PSCL4 PREFETCHES SAME FILL-ORIGIN LEVEL: 0 DIFFERENT FILL-ORIGIN LEVEL: 0

PSCL3 SPEC fills:          0  NON-SPEC fills:          0
PSCL3 Test counter :          0
PSCL3 Leapfrog:          0
PSCL3 MSHR merge:          0
PSCL3 TOTAL     ACCESS:          0  HIT:          0  MISS:          0  HIT %:       -nan  MISS %:       -nan   MPKI: 0
PSCL3 PREFETCH  REQUESTED:          0  ISSUED:          0  USEFUL:          0  USELESS:          0
PSCL3 USEFUL LOAD PREFETCHES:          0 PREFETCH ISSUED TO LOWER LEVEL:          0  ACCURACY: -nan
PSCL3 TIMELY PREFETCHES:          0 LATE PREFETCHES: 0 DROPPED PREFETCHES: 0
PSCL3 COMMIT LATE PREFETCHES: 0 MISSED OPPORTUNITY: 0 LATE IN PQ: 0 UNCOVERED: 0
PSCL3 COMMIT LATE MSHR PREFETCHES: 0
PSCL3 MPKI TOTAL: 0 MSHR LATE: 0 PQ LATE: 0 COMMIT LATE: 0 MISSED OPPORTUNITY: 0 UNCOVERED: 0
PSCL3 PREFETCHES SAME FILL-ORIGIN LEVEL: 0 DIFFERENT FILL-ORIGIN LEVEL: 0

PSCL2 SPEC fills:          0  NON-SPEC fills:          0
PSCL2 Test counter :          0
PSCL2 Leapfrog:          0
PSCL2 MSHR merge:          0
PSCL2 TOTAL     ACCESS:          0  HIT:          0  MISS:          0  HIT %:       -nan  MISS %:       -nan   MPKI: 0
PSCL2 PREFETCH  REQUESTED:          0  ISSUED:          0  USEFUL:          0  USELESS:          0
PSCL2 USEFUL LOAD PREFETCHES:          0 PREFETCH ISSUED TO LOWER LEVEL:          0  ACCURACY: -nan
PSCL2 TIMELY PREFETCHES:          0 LATE PREFETCHES: 0 DROPPED PREFETCHES: 0
PSCL2 COMMIT LATE PREFETCHES: 0 MISSED OPPORTUNITY: 0 LATE IN PQ: 0 UNCOVERED: 0
PSCL2 COMMIT LATE MSHR PREFETCHES: 0
PSCL2 MPKI TOTAL: 0 MSHR LATE: 0 PQ LATE: 0 COMMIT LATE: 0 MISSED OPPORTUNITY: 0 UNCOVERED: 0
PSCL2 PREFETCHES SAME FILL-ORIGIN LEVEL: 0 DIFFERENT FILL-ORIGIN LEVEL: 0

LLC SPEC fills:          0  NON-SPEC fills:     509990
LLC Test counter :          0
LLC Leapfrog:          0
LLC MSHR merge:          0
LLC TOTAL     ACCESS:   43132222  HIT:   18494646  MISS:   24637576  HIT %:     42.879  MISS %:     57.121   MPKI: 123.188
LLC LOAD      TOTAL       ACCESS:   14095132  HIT:    6607265  MISS:    7487867  HIT %:    46.8762  MISS %:    53.1238   MPKI: 37.4393
LLC LOAD      NON_SPEC    ACCESS:     829270  HIT:     319280  MISS:     509990  HIT %:    38.5013  MISS %:    61.4987   MPKI: 2.54995
LLC LOAD      SPEC        ACCESS:   13265862  HIT:    6287985  MISS:    6977877  HIT %:    47.3997  MISS %:    52.6003   MPKI: 34.8894
LLC RFO       NON_SPEC    ACCESS:      33739  HIT:        470  MISS:      33269  HIT %:    1.39305  MISS %:     98.607   MPKI: 0.166345
LLC PREFETCH  NON_SPEC    ACCESS:   14884663  HIT:    5669986  MISS:    9214677  HIT %:    38.0928  MISS %:    61.9072   MPKI: 46.0734
LLC WRITEBACK NON_SPEC    ACCESS:     317098  HIT:     317008  MISS:         90  HIT %:    99.9716  MISS %:  0.0283824   MPKI: 0.00045
LLC CLEAN_EVICTION NON_SPEC    ACCESS:   13241053  HIT:    5471456  MISS:    7769597  HIT %:    41.3219  MISS %:    58.6781   MPKI: 38.848
LLC COMMIT LOAD NON_SPEC    ACCESS:     297165  HIT:     227585  MISS:      69580  HIT %:    76.5854  MISS %:    23.4146   MPKI: 0.3479
LLC LOAD TRANSLATION NON_SPEC    ACCESS:     263344  HIT:     200858  MISS:      62486  HIT %:    76.2721  MISS %:    23.7279   MPKI: 0.31243
LLC TRANSLATION FROM L1D PREFETCHER NON_SPEC    ACCESS:         28  HIT:         18  MISS:         10  HIT %:    64.2857  MISS %:    35.7143   MPKI: 5e-05
LLC PREFETCH  REQUESTED:          0  ISSUED:          0  USEFUL:     939798  USELESS:    8276764
LLC USEFUL LOAD PREFETCHES:     939798 PREFETCH ISSUED TO LOWER LEVEL:    9214678  ACCURACY: 10.1989
LLC TIMELY PREFETCHES:     939798 LATE PREFETCHES: 0 DROPPED PREFETCHES: 0
LLC COMMIT LATE PREFETCHES: 0 MISSED OPPORTUNITY: 0 LATE IN PQ: 0 UNCOVERED: 0
LLC COMMIT LATE MSHR PREFETCHES: 0
LLC MPKI TOTAL: 37.4393 MSHR LATE: 0 PQ LATE: 0 COMMIT LATE: 0 MISSED OPPORTUNITY: 0 UNCOVERED: 0
LLC PREFETCHES SAME FILL-ORIGIN LEVEL: 0 DIFFERENT FILL-ORIGIN LEVEL: 0
LLC AVERAGE MISS LATENCY: 169.944 cycles
LLC AVERAGE MISS LATENCY LOAD: 233.726 cycles
LLC AVERAGE MISS LATENCY PREFETCH: 260.103 cycles
LLC AVERAGE MSHR OCCUPANCY: 4.46348
LLC MSHR FULL: 0
LLC RQ	ACCESS:   14689662	FORWARD:          0	MERGED:          0	TO_CACHE:   14689407
LLC WQ	ACCESS:   13558151	FORWARD:        307	MERGED:          0	TO_CACHE:   13558151
LLC PQ	ACCESS:   14884716	FORWARD:          0	MERGED:          0	TO_CACHE:   14884664

LLC Dense regions hint to LLC: 0

RAW hits: 2466743
Loads Generated: 49476931
Loads sent to L1D: 47010187
Stores Generated: 7505174
Stores sent to L1D: 7505182
Major fault: 0 Minor fault: 33326
Allocated PAGES: 33326
Total Load insts: 60819422
Total Non-spec loads: 2503815
Percentage of speculative loads: 95.8832

LeapFrogging counter: 20065292
Commit hits: 24747858 miss: 20155297
Commit hit %: 55.1139 miss %: 44.8861
Commits not translated: 0
Loads retired: 16733153
Stores retired: 7505182
Cache fills: 16733162
L1D response latency: 137.875 cycles
Load retirement latency: 356.069 cycles
OOO test counter: 0
Discarded buffer inserts: 24747858 hits: 49571 hit %: 0.200304
Filter prediction accuracy: 99.7409

stream: 
stream:times selected: 21913568
stream:pref_filled: 18399417
stream:pref_useful: 287824
stream:pref_late: 7531
stream:misses: 4192170
stream:misses_by_poll: 0

CS: 
CS:times selected: 1272016
CS:pref_filled: 1315348
CS:pref_useful: 1017755
CS:pref_late: 404
CS:misses: 199511
CS:misses_by_poll: 34411

CPLX: 
CPLX:times selected: 20505258
CPLX:pref_filled: 543127
CPLX:pref_useful: 22607
CPLX:pref_late: 405
CPLX:misses: 15599257
CPLX:misses_by_poll: 48584

NL_L1: 
NL:times selected: 20143
NL:pref_filled: 18735
NL:pref_useful: 229
NL:pref_late: 3
NL:misses: 19832
NL:misses_by_poll: 1

total selections: 43710985
total_filled: 16783088
total_useful: 1005388
total_late: 8831
total_polluted: 82996
total_misses_after_warmup: 16739020
conflicts: 15
Degree Incremented Times: 24087
Degree Decremented Times: 298594

L1 IP Table Write Accesses: 27673572
L1 IP Table Read Accesses: 27673557
L1 RST Write Accesses: 18208371
L1 RST Read Accesses: 36416742
L1 CSPT Write Accesses: 18208371
L1 CSPT Read Accesses: 35259845
L1 RR Filter Tag Write Accesses: 18577604
L1 RR Filter Tag Read Accesses: 654093081
L1 IP Table Tag Write Accesses: 27673597
L1 IP Table Tag Read Accesses: 27673597
L1 RST Tag Write Accesses: 0
L1 RST Tag Read Accesses: 163755505
L1 RR Filter Write Accesses: 0
L1 RR Filter Read Accesses: 21502415
test: 8600511

DRAM Statistics
 CHANNEL 0
 RQ ROW_BUFFER_HIT:    4318837  ROW_BUFFER_MISS:   12536752
 DBUS_CONGESTED:       1706
 WQ ROW_BUFFER_HIT:    1650879  ROW_BUFFER_MISS:    7349619  FULL:         81

 AVG_CONGESTED_CYCLE: 5
 All warmup complete: 2
Channel 0 Bank busy for read cycles: 0
Channel 0 Bank busy for write cycles: 0
Channel 0
Rank 0
0banks busy for read cycles: 32137592
0banks busy for write cycles: 61794
1banks busy for read cycles: 91153894
1banks busy for write cycles: 9286691
2banks busy for read cycles: 103008554
2banks busy for write cycles: 7492630
3banks busy for read cycles: 91990105
3banks busy for write cycles: 7126755
4banks busy for read cycles: 91251436
4banks busy for write cycles: 7390483
5banks busy for read cycles: 81571871
5banks busy for write cycles: 8459180
6banks busy for read cycles: 65451946
6banks busy for write cycles: 13777232
7banks busy for read cycles: 41195426
7banks busy for write cycles: 49452532
8banks busy for read cycles: 16661425
8banks busy for write cycles: 171278741

CPU 0 Branch Prediction Accuracy: 97.9623% MPKI: 4.27319 Average ROB Occupancy at Mispredict: 142.964
Branch types
NOT_BRANCH: 158058064 79.029%
BRANCH_DIRECT_JUMP: 294369 0.147184%
BRANCH_INDIRECT: 0 0%
BRANCH_CONDITIONAL: 41647514 20.8238%
BRANCH_DIRECT_CALL: 22 1.1e-05%
BRANCH_INDIRECT_CALL: 0 0%
BRANCH_RETURN: 22 1.1e-05%
BRANCH_OTHER: 0 0%

DRAM PAGES: 1048576
Allocated PAGES: 33326
