
*** ChampSim Multicore Out-of-Order Simulator ***

Warmup Instructions: 50000000
Simulation Instructions: 200000000
Number of CPUs: 1
LLC sets: 2048
LLC ways: 16
L0D sets: 16
L0D ways: 2
ROB size: 352
LQ size: 128
SQ size: 72
Secure Berti: OFF
Berti: OFF
Berti Fill: OFF
On commit prefetching: OFF
Hit-based filter: ON
Time-guarding: ON
Free-slotting: ON
Leap-frogging: ON
Train prefetcher on L0D bypass: OFF
No translation penalty for prefetchers: OFF
Prefetch to L0D only: OFF
Prefetch to L1D only: OFF
Clean evictions: ON
Commit loads: ON
Commit write: ON
Fill commit loads to L2C, LLC: ON
DRAM IO FREQUENCY: 6400
ROB SIZE: 352
Off-chip DRAM Size: 4096 MB Channels: 1 Width: 64-bit Data Rate: 6400 MT/s
CPU 0 runs /home/sumon/secure_berti/GhostMinion/../../traces/gap/bfs-10.trace.gz
.gz
BTB has LRU replacement policy
ITLB has LRU replacement policy
DTLB has LRU replacement policy
STLB has LRU replacement policy
L1I has LRU replacement policy
L0D has LRU replacement policy
IP Table Entries: 1024
CSPT Entries: 128
RR_ENTRIES: 32
RST_ENTRIES: 8
L1D has LRU replacement policy
L2C has LRU replacement policy
LLC has LRU replacement policy
Heartbeat CPU 0 instructions: 10000002 cycles: 2972907 heartbeat IPC: 3.36371 cumulative IPC: 3.36371 (Simulation time: 0 hr 0 min 24 sec) 
Heartbeat CPU 0 instructions: 20000000 cycles: 6056567 heartbeat IPC: 3.2429 cumulative IPC: 3.3022 (Simulation time: 0 hr 1 min 9 sec) 
Heartbeat CPU 0 instructions: 30000003 cycles: 9129846 heartbeat IPC: 3.25385 cumulative IPC: 3.28593 (Simulation time: 0 hr 1 min 52 sec) 
Heartbeat CPU 0 instructions: 40000001 cycles: 12201966 heartbeat IPC: 3.25508 cumulative IPC: 3.27816 (Simulation time: 0 hr 2 min 36 sec) 
Heartbeat CPU 0 instructions: 50000000 cycles: 15274006 heartbeat IPC: 3.25517 cumulative IPC: 3.27354 (Simulation time: 0 hr 3 min 23 sec) 

Warmup complete CPU 0 instructions: 50000004 cycles: 15274007 (Simulation time: 0 hr 3 min 23 sec) 

Heartbeat CPU 0 instructions: 60000001 cycles: 50074032 heartbeat IPC: 0.287356 cumulative IPC: 0.287356 (Simulation time: 0 hr 4 min 13 sec) 
Heartbeat CPU 0 instructions: 70000003 cycles: 90614311 heartbeat IPC: 0.246668 cumulative IPC: 0.265462 (Simulation time: 0 hr 5 min 4 sec) 
Heartbeat CPU 0 instructions: 80000002 cycles: 120302806 heartbeat IPC: 0.336831 cumulative IPC: 0.285636 (Simulation time: 0 hr 5 min 44 sec) 
Heartbeat CPU 0 instructions: 90000000 cycles: 134491686 heartbeat IPC: 0.704777 cumulative IPC: 0.335521 (Simulation time: 0 hr 6 min 16 sec) 
Heartbeat CPU 0 instructions: 100000000 cycles: 152638427 heartbeat IPC: 0.551063 cumulative IPC: 0.363995 (Simulation time: 0 hr 6 min 50 sec) 
Heartbeat CPU 0 instructions: 110000000 cycles: 179936830 heartbeat IPC: 0.366322 cumulative IPC: 0.364381 (Simulation time: 0 hr 7 min 31 sec) 
Heartbeat CPU 0 instructions: 120000000 cycles: 219600508 heartbeat IPC: 0.25212 cumulative IPC: 0.342589 (Simulation time: 0 hr 8 min 17 sec) 
Heartbeat CPU 0 instructions: 130000002 cycles: 259300239 heartbeat IPC: 0.251891 cumulative IPC: 0.327834 (Simulation time: 0 hr 9 min 3 sec) 
Heartbeat CPU 0 instructions: 140000001 cycles: 301144086 heartbeat IPC: 0.238984 cumulative IPC: 0.314828 (Simulation time: 0 hr 9 min 49 sec) 
Heartbeat CPU 0 instructions: 150000003 cycles: 343779983 heartbeat IPC: 0.234544 cumulative IPC: 0.304408 (Simulation time: 0 hr 10 min 35 sec) 
Heartbeat CPU 0 instructions: 160000001 cycles: 367871238 heartbeat IPC: 0.415088 cumulative IPC: 0.311971 (Simulation time: 0 hr 11 min 11 sec) 
Heartbeat CPU 0 instructions: 170000001 cycles: 381565306 heartbeat IPC: 0.730243 cumulative IPC: 0.327608 (Simulation time: 0 hr 11 min 41 sec) 
Heartbeat CPU 0 instructions: 180000000 cycles: 401476111 heartbeat IPC: 0.50224 cumulative IPC: 0.336611 (Simulation time: 0 hr 12 min 15 sec) 
Heartbeat CPU 0 instructions: 190000000 cycles: 432732706 heartbeat IPC: 0.319932 cumulative IPC: 0.335362 (Simulation time: 0 hr 12 min 58 sec) 
Heartbeat CPU 0 instructions: 200000001 cycles: 472196471 heartbeat IPC: 0.253397 cumulative IPC: 0.328283 (Simulation time: 0 hr 13 min 43 sec) 
Heartbeat CPU 0 instructions: 210000002 cycles: 511729698 heartbeat IPC: 0.252952 cumulative IPC: 0.322285 (Simulation time: 0 hr 14 min 29 sec) 
Heartbeat CPU 0 instructions: 220000000 cycles: 554879866 heartbeat IPC: 0.231749 cumulative IPC: 0.315045 (Simulation time: 0 hr 15 min 16 sec) 
Heartbeat CPU 0 instructions: 230000000 cycles: 592769815 heartbeat IPC: 0.263922 cumulative IPC: 0.311691 (Simulation time: 0 hr 15 min 59 sec) 
Heartbeat CPU 0 instructions: 240000002 cycles: 613438684 heartbeat IPC: 0.48382 cumulative IPC: 0.317638 (Simulation time: 0 hr 16 min 33 sec) 
Heartbeat CPU 0 instructions: 250000001 cycles: 627561140 heartbeat IPC: 0.708092 cumulative IPC: 0.326644 (Simulation time: 0 hr 17 min 4 sec) 
Finished CPU 0 instructions: 200000002 cycles: 612287135 cumulative IPC: 0.326644 (Simulation time: 0 hr 17 min 4 sec) 
 Instruction ID: 250000030

ChampSim completed all CPUs

Region of Interest Statistics

CPU 0 cumulative IPC: 0.326644 instructions: 200000002 cycles: 612287135
ITLB SPEC fills:          0  NON-SPEC fills:          0
ITLB Test counter :          0
ITLB Leapfrog:          0
ITLB MSHR merge:          0
ITLB TOTAL     ACCESS:   33483607  HIT:   33483607  MISS:          0  HIT %:        100  MISS %:          0   MPKI: 0
ITLB LOAD TRANSLATION NON_SPEC    ACCESS:   33483607  HIT:   33483607  MISS:          0  HIT %:        100  MISS %:          0   MPKI: 0
ITLB PREFETCH  REQUESTED:          0  ISSUED:          0  USEFUL:          0  USELESS:          0
ITLB USEFUL LOAD PREFETCHES:          0 PREFETCH ISSUED TO LOWER LEVEL:          0  ACCURACY: -nan
ITLB TIMELY PREFETCHES:          0 LATE PREFETCHES: 0 DROPPED PREFETCHES: 0
ITLB COMMIT LATE PREFETCHES: 0 MISSED OPPORTUNITY: 0 LATE IN PQ: 0 UNCOVERED: 0
ITLB COMMIT LATE MSHR PREFETCHES: 0
ITLB MPKI TOTAL: 0 MSHR LATE: 0 PQ LATE: 0 COMMIT LATE: 0 MISSED OPPORTUNITY: 0 UNCOVERED: 0
ITLB PREFETCHES SAME FILL-ORIGIN LEVEL: 0 DIFFERENT FILL-ORIGIN LEVEL: 0
ITLB AVERAGE MISS LATENCY: -nan cycles
ITLB AVERAGE MISS LATENCY LOAD: -nan cycles
ITLB AVERAGE MISS LATENCY PREFETCH: -nan cycles
ITLB AVERAGE MSHR OCCUPANCY: 0
ITLB MSHR FULL: 0
ITLB RQ	ACCESS:   42010979	FORWARD:          0	MERGED:    8527373	TO_CACHE:   33483606

DTLB SPEC fills:          0  NON-SPEC fills:          0
DTLB Test counter :          0
DTLB Leapfrog:          0
DTLB MSHR merge:          0
DTLB TOTAL     ACCESS:   43824797  HIT:   43634660  MISS:     190137  HIT %:    99.5661  MISS %:   0.433857   MPKI: 0.950685
DTLB LOAD TRANSLATION NON_SPEC    ACCESS:   43824797  HIT:   43634660  MISS:     190137  HIT %:    99.5661  MISS %:   0.433857   MPKI: 0.950685
DTLB PREFETCH  REQUESTED:          0  ISSUED:          0  USEFUL:          0  USELESS:          0
DTLB USEFUL LOAD PREFETCHES:          0 PREFETCH ISSUED TO LOWER LEVEL:          0  ACCURACY: -nan
DTLB TIMELY PREFETCHES:          0 LATE PREFETCHES: 0 DROPPED PREFETCHES: 0
DTLB COMMIT LATE PREFETCHES: 0 MISSED OPPORTUNITY: 0 LATE IN PQ: 0 UNCOVERED: 0
DTLB COMMIT LATE MSHR PREFETCHES: 0
DTLB MPKI TOTAL: 0 MSHR LATE: 0 PQ LATE: 0 COMMIT LATE: 0 MISSED OPPORTUNITY: 0 UNCOVERED: 0
DTLB PREFETCHES SAME FILL-ORIGIN LEVEL: 0 DIFFERENT FILL-ORIGIN LEVEL: 0
DTLB AVERAGE MISS LATENCY: 115.246 cycles
DTLB AVERAGE MISS LATENCY LOAD: -nan cycles
DTLB AVERAGE MISS LATENCY PREFETCH: -nan cycles
DTLB AVERAGE MSHR OCCUPANCY: 0.00957011
DTLB MSHR FULL: 0
DTLB RQ	ACCESS:   46714240	FORWARD:          0	MERGED:    2877128	TO_CACHE:   43837112

STLB SPEC fills:          0  NON-SPEC fills:          0
STLB Test counter :          0
STLB Leapfrog:          0
STLB MSHR merge:          0
STLB TOTAL     ACCESS:    6117156  HIT:    5950608  MISS:     166548  HIT %:    97.2774  MISS %:    2.72264   MPKI: 0.83274
STLB LOAD TRANSLATION NON_SPEC    ACCESS:     190137  HIT:      23596  MISS:     166541  HIT %:      12.41  MISS %:      87.59   MPKI: 0.832705
STLB TRANSLATION FROM L1D PREFETCHER NON_SPEC    ACCESS:    5927019  HIT:    5927012  MISS:          7  HIT %:    99.9999  MISS %: 0.000118103   MPKI: 3.5e-05
STLB PREFETCH  REQUESTED:          0  ISSUED:          0  USEFUL:          5  USELESS:          1
STLB USEFUL LOAD PREFETCHES:          5 PREFETCH ISSUED TO LOWER LEVEL:          0  ACCURACY: inf
STLB TIMELY PREFETCHES:          5 LATE PREFETCHES: 0 DROPPED PREFETCHES: 0
STLB COMMIT LATE PREFETCHES: 0 MISSED OPPORTUNITY: 0 LATE IN PQ: 0 UNCOVERED: 0
STLB COMMIT LATE MSHR PREFETCHES: 0
STLB MPKI TOTAL: 0 MSHR LATE: 0 PQ LATE: 0 COMMIT LATE: 0 MISSED OPPORTUNITY: 0 UNCOVERED: 0
STLB PREFETCHES SAME FILL-ORIGIN LEVEL: 0 DIFFERENT FILL-ORIGIN LEVEL: 0
STLB AVERAGE MISS LATENCY: 121.303 cycles
STLB AVERAGE MISS LATENCY LOAD: -nan cycles
STLB AVERAGE MISS LATENCY PREFETCH: -nan cycles
STLB AVERAGE MSHR OCCUPANCY: 0.0116775
STLB MSHR FULL: 0
STLB RQ	ACCESS:    7207371	FORWARD:          0	MERGED:    1090212	TO_CACHE:    6117159

STLB Hit, L1D data hit: 0
STLB Hit, L2C data hit: 0
STLB Hit, LLC data hit: 0
STLB Hit, LLC data miss: 0
STLB STLB hints to L2: 0
L0D SPEC fills:   20656699  NON-SPEC fills:          0
L0D TimeGuard Request with older TS:      32010 Restricted eviction:       4130 read:        168
L0D Test counter :          0
L0D Leapfrog:          0
L0D MSHR merge:     209324
L0D TOTAL     ACCESS:   40962342  HIT:    3406661  MISS:   37555681  HIT %:    8.31657  MISS %:    91.6834   MPKI: 187.778
L0D LOAD      TOTAL       ACCESS:   40962342  HIT:    3406661  MISS:   37555681  HIT %:    8.31657  MISS %:    91.6834   MPKI: 187.778
L0D LOAD      NON_SPEC    ACCESS:   16895125  HIT:        273  MISS:   16894852  HIT %: 0.00161585  MISS %:    99.9984   MPKI: 84.4743
L0D LOAD      SPEC        ACCESS:   24067217  HIT:    3406388  MISS:   20660829  HIT %:    14.1536  MISS %:    85.8464   MPKI: 103.304
L0D PREFETCH  REQUESTED:          0  ISSUED:          0  USEFUL:          0  USELESS:          0
L0D USEFUL LOAD PREFETCHES:          0 PREFETCH ISSUED TO LOWER LEVEL:          0  ACCURACY: -nan
L0D TIMELY PREFETCHES:          0 LATE PREFETCHES: 0 DROPPED PREFETCHES: 0
L0D COMMIT LATE PREFETCHES: 0 MISSED OPPORTUNITY: 0 LATE IN PQ: 0 UNCOVERED: 0
L0D COMMIT LATE MSHR PREFETCHES: 0
L0D MPKI TOTAL: 188.825 MSHR LATE: 0 PQ LATE: 0 COMMIT LATE: 0 MISSED OPPORTUNITY: 0 UNCOVERED: 0
L0D PREFETCHES SAME FILL-ORIGIN LEVEL: 0 DIFFERENT FILL-ORIGIN LEVEL: 0
L0D AVERAGE MISS LATENCY: 9.1233 cycles
L0D AVERAGE MISS LATENCY LOAD: 9.1233 cycles
L0D AVERAGE MISS LATENCY PREFETCH: -nan cycles
L0D AVERAGE MSHR OCCUPANCY: 0.422367
L0D MSHR FULL: 0.000773361
L0D RQ	ACCESS:   49165645	FORWARD:          0	MERGED:    7993980	TO_CACHE:   41171665
L0D WQ	ACCESS:    5542575	FORWARD:          0	MERGED:          0	TO_CACHE:    5542575

L1D SPEC fills:          0  NON-SPEC fills:    1678795
L1D Test counter :          0
L1D Leapfrog:          0
L1D MSHR merge:      78408
L1D TOTAL     ACCESS:   50283926  HIT:   41506186  MISS:    8777740  HIT %:    82.5436  MISS %:    17.4564   MPKI: 43.8887
L1D LOAD      TOTAL       ACCESS:   37555623  HIT:   34925441  MISS:    2630182  HIT %:    92.9966  MISS %:    7.00343   MPKI: 13.1509
L1D LOAD      NON_SPEC    ACCESS:   16894840  HIT:   15216045  MISS:    1678795  HIT %:    90.0633  MISS %:    9.93673   MPKI: 8.39397
L1D LOAD      SPEC        ACCESS:   20660783  HIT:   19709396  MISS:     951387  HIT %:    95.3952  MISS %:     4.6048   MPKI: 4.75693
L1D RFO       NON_SPEC    ACCESS:    4585518  HIT:    4430442  MISS:     155076  HIT %:    96.6181  MISS %:    3.38186   MPKI: 0.77538
L1D PREFETCH  NON_SPEC    ACCESS:    6916962  HIT:    1875393  MISS:    5041569  HIT %:     27.113  MISS %:     72.887   MPKI: 25.2078
L1D COMMIT LOAD NON_SPEC    ACCESS:     272521  HIT:     270287  MISS:       2234  HIT %:    99.1802  MISS %:   0.819753   MPKI: 0.01117
L1D COMMIT WRITE NON_SPEC    ACCESS:     953302  HIT:       4623  MISS:     948679  HIT %:   0.484946  MISS %:    99.5151   MPKI: 4.74339
L1D PREFETCH  REQUESTED:    7017242  ISSUED:    7017234  USEFUL:    2751238  USELESS:    2290636
L1D USEFUL LOAD PREFETCHES:    2751238 PREFETCH ISSUED TO LOWER LEVEL:    5119924  ACCURACY: 53.7359
L1D TIMELY PREFETCHES:    2751238 LATE PREFETCHES: 78355 DROPPED PREFETCHES: 0
L1D COMMIT LATE PREFETCHES: 0 MISSED OPPORTUNITY: 0 LATE IN PQ: 0 UNCOVERED: 0
L1D COMMIT LATE MSHR PREFETCHES: 0
L1D MPKI TOTAL: 13.1512 MSHR LATE: 0.391775 PQ LATE: 0 COMMIT LATE: 0 MISSED OPPORTUNITY: 0 UNCOVERED: 0
L1D PREFETCHES SAME FILL-ORIGIN LEVEL: 5119924 DIFFERENT FILL-ORIGIN LEVEL: 0
L1D AVERAGE MISS LATENCY: 86.9997 cycles
L1D AVERAGE MISS LATENCY LOAD: 57.9296 cycles
L1D AVERAGE MISS LATENCY PREFETCH: 116.516 cycles
L1D AVERAGE MSHR OCCUPANCY: 0.88729
L1D MSHR FULL: 0.000842908
L1D RQ	ACCESS:   38009303	FORWARD:          0	MERGED:     178140	TO_CACHE:   37828266
L1D WQ	ACCESS:    6482832	FORWARD:       2897	MERGED:      30799	TO_CACHE:    6452033
L1D PQ	ACCESS:    7017234	FORWARD:          0	MERGED:          0	TO_CACHE:    7017234

L1D UNIQUE REGIONS ACCESSED: 0
L1D REGIONS CONFLICTS: 0
L1D Cross Page Prefetch Requests: 0
L1D Same Page Prefetch Requests: 11312154
L1D ROI Sum of L1D PQ occupancy: 91493620
L1D PREFETCHES PUSHED FROM L2C: 0
L1I SPEC fills:          0  NON-SPEC fills:          0
L1I Test counter :          0
L1I Leapfrog:          0
L1I MSHR merge:          1
L1I TOTAL     ACCESS:   42010978  HIT:   42010963  MISS:         15  HIT %:        100  MISS %: 3.5705e-05   MPKI: 7.5e-05
L1I LOAD      TOTAL       ACCESS:   42010978  HIT:   42010963  MISS:         15  HIT %:        100  MISS %: 3.5705e-05   MPKI: 7.5e-05
L1I LOAD      NON_SPEC    ACCESS:   42010978  HIT:   42010963  MISS:         15  HIT %:        100  MISS %: 3.5705e-05   MPKI: 7.5e-05
L1I PREFETCH  REQUESTED:          0  ISSUED:          0  USEFUL:          0  USELESS:          0
L1I USEFUL LOAD PREFETCHES:          0 PREFETCH ISSUED TO LOWER LEVEL:          0  ACCURACY: -nan
L1I TIMELY PREFETCHES:          0 LATE PREFETCHES: 0 DROPPED PREFETCHES: 0
L1I COMMIT LATE PREFETCHES: 0 MISSED OPPORTUNITY: 0 LATE IN PQ: 0 UNCOVERED: 0
L1I COMMIT LATE MSHR PREFETCHES: 0
L1I MPKI TOTAL: 8e-05 MSHR LATE: 0 PQ LATE: 0 COMMIT LATE: 0 MISSED OPPORTUNITY: 0 UNCOVERED: 0
L1I PREFETCHES SAME FILL-ORIGIN LEVEL: 0 DIFFERENT FILL-ORIGIN LEVEL: 0
L1I AVERAGE MISS LATENCY: 196.8 cycles
L1I AVERAGE MISS LATENCY LOAD: 196.8 cycles
L1I AVERAGE MISS LATENCY PREFETCH: -nan cycles
L1I AVERAGE MSHR OCCUPANCY: 1.90426e-07
L1I MSHR FULL: 0
L1I RQ	ACCESS:   65235922	FORWARD:          0	MERGED:   23224943	TO_CACHE:   42010979

BTB SPEC fills:          0  NON-SPEC fills:          0
BTB Test counter :          0
BTB Leapfrog:          0
BTB MSHR merge:          0
BTB TOTAL     ACCESS:   42321273  HIT:   42320954  MISS:        319  HIT %:    99.9992  MISS %: 0.000753758   MPKI: 0.001595
BTB BRANCH_DIRECT_JUMP	ACCESS:       5431  HIT:       5387  MISS:         44
BTB BRANCH_INDIRECT	ACCESS:          2  HIT:          1  MISS:          1
BTB BRANCH_CONDITIONAL	ACCESS:   42315328  HIT:   42315225  MISS:        103
BTB BRANCH_DIRECT_CALL	ACCESS:        250  HIT:        208  MISS:         42
BTB BRANCH_INDIRECT_CALL	ACCESS:          6  HIT:          3  MISS:          3
BTB BRANCH_RETURN	ACCESS:        256  HIT:        130  MISS:        126
BTB BRANCH_OTHER ACCESS:          0  HIT:          0  MISS:          0

L2C SPEC fills:          0  NON-SPEC fills:     588663
L2C Test counter :          0
L2C Leapfrog:          0
L2C MSHR merge:          0
L2C TOTAL     ACCESS:    9327830  HIT:    4923079  MISS:    4404751  HIT %:    52.7784  MISS %:    47.2216   MPKI: 22.0238
L2C LOAD      TOTAL       ACCESS:    2551822  HIT:    1811642  MISS:     740180  HIT %:    70.9941  MISS %:    29.0059   MPKI: 3.7009
L2C LOAD      NON_SPEC    ACCESS:    1619898  HIT:    1031220  MISS:     588678  HIT %:    63.6596  MISS %:    36.3404   MPKI: 2.94339
L2C LOAD      SPEC        ACCESS:     931924  HIT:     780422  MISS:     151502  HIT %:    83.7431  MISS %:    16.2569   MPKI: 0.75751
L2C RFO       NON_SPEC    ACCESS:     155076  HIT:      10326  MISS:     144750  HIT %:    6.65867  MISS %:    93.3413   MPKI: 0.72375
L2C PREFETCH  NON_SPEC    ACCESS:    5119923  HIT:    1784060  MISS:    3335863  HIT %:    34.8454  MISS %:    65.1546   MPKI: 16.6793
L2C WRITEBACK NON_SPEC    ACCESS:     494568  HIT:     494561  MISS:          7  HIT %:    99.9986  MISS %: 0.00141538   MPKI: 3.5e-05
L2C CLEAN_EVICTION NON_SPEC    ACCESS:     171478  HIT:      20770  MISS:     150708  HIT %:    12.1123  MISS %:    87.8877   MPKI: 0.75354
L2C COMMIT LOAD NON_SPEC    ACCESS:       2230  HIT:       1491  MISS:        739  HIT %:     66.861  MISS %:     33.139   MPKI: 0.003695
L2C LOAD TRANSLATION NON_SPEC    ACCESS:     832698  HIT:     800202  MISS:      32496  HIT %:    96.0975  MISS %:     3.9025   MPKI: 0.16248
L2C TRANSLATION FROM L1D PREFETCHER NON_SPEC    ACCESS:         35  HIT:         27  MISS:          8  HIT %:    77.1429  MISS %:    22.8571   MPKI: 4e-05
L2C PREFETCH  REQUESTED:          0  ISSUED:          0  USEFUL:      68787  USELESS:    3263776
L2C USEFUL LOAD PREFETCHES:      68787 PREFETCH ISSUED TO LOWER LEVEL:    3335862  ACCURACY: 2.06205
L2C TIMELY PREFETCHES:      68787 LATE PREFETCHES: 0 DROPPED PREFETCHES: 0
L2C COMMIT LATE PREFETCHES: 0 MISSED OPPORTUNITY: 0 LATE IN PQ: 0 UNCOVERED: 0
L2C COMMIT LATE MSHR PREFETCHES: 0
L2C MPKI TOTAL: 3.7009 MSHR LATE: 0 PQ LATE: 0 COMMIT LATE: 0 MISSED OPPORTUNITY: 0 UNCOVERED: 0
L2C PREFETCHES SAME FILL-ORIGIN LEVEL: 0 DIFFERENT FILL-ORIGIN LEVEL: 0
L2C AVERAGE MISS LATENCY: 151.13 cycles
L2C AVERAGE MISS LATENCY LOAD: 150.873 cycles
L2C AVERAGE MISS LATENCY PREFETCH: 157.637 cycles
L2C AVERAGE MSHR OCCUPANCY: 0.921715
L2C MSHR FULL: 0
L2C RQ	ACCESS:    3541885	FORWARD:          0	MERGED:          0	TO_CACHE:    3541861
L2C WQ	ACCESS:     666046	FORWARD:         26	MERGED:          0	TO_CACHE:     666046
L2C PQ	ACCESS:    5119924	FORWARD:          0	MERGED:          0	TO_CACHE:    5119922

L2C Instructions Evicting Data 14
L2C Translations Evicting Data 32062
L2C Data Evicting Data 4039799
L2C Instructions Evicting Instructions 0
L2C Translations Evicting Instructions 1
L2C Data Evicting Instructions 14
L2C Instructions Evicting Translations 1
L2C Translations Evicting Translations 441
L2C Data Evicting Translations 30202
L2C Dense regions hint from L2: 0
PSCL5 SPEC fills:          0  NON-SPEC fills:          0
PSCL5 Test counter :          0
PSCL5 Leapfrog:          0
PSCL5 MSHR merge:          0
PSCL5 TOTAL     ACCESS:          0  HIT:          0  MISS:          0  HIT %:       -nan  MISS %:       -nan   MPKI: 0
PSCL5 PREFETCH  REQUESTED:          0  ISSUED:          0  USEFUL:          0  USELESS:          0
PSCL5 USEFUL LOAD PREFETCHES:          0 PREFETCH ISSUED TO LOWER LEVEL:          0  ACCURACY: -nan
PSCL5 TIMELY PREFETCHES:          0 LATE PREFETCHES: 0 DROPPED PREFETCHES: 0
PSCL5 COMMIT LATE PREFETCHES: 0 MISSED OPPORTUNITY: 0 LATE IN PQ: 0 UNCOVERED: 0
PSCL5 COMMIT LATE MSHR PREFETCHES: 0
PSCL5 MPKI TOTAL: 0 MSHR LATE: 0 PQ LATE: 0 COMMIT LATE: 0 MISSED OPPORTUNITY: 0 UNCOVERED: 0
PSCL5 PREFETCHES SAME FILL-ORIGIN LEVEL: 0 DIFFERENT FILL-ORIGIN LEVEL: 0

PSCL4 SPEC fills:          0  NON-SPEC fills:          0
PSCL4 Test counter :          0
PSCL4 Leapfrog:          0
PSCL4 MSHR merge:          0
PSCL4 TOTAL     ACCESS:          0  HIT:          0  MISS:          0  HIT %:       -nan  MISS %:       -nan   MPKI: 0
PSCL4 PREFETCH  REQUESTED:          0  ISSUED:          0  USEFUL:          0  USELESS:          0
PSCL4 USEFUL LOAD PREFETCHES:          0 PREFETCH ISSUED TO LOWER LEVEL:          0  ACCURACY: -nan
PSCL4 TIMELY PREFETCHES:          0 LATE PREFETCHES: 0 DROPPED PREFETCHES: 0
PSCL4 COMMIT LATE PREFETCHES: 0 MISSED OPPORTUNITY: 0 LATE IN PQ: 0 UNCOVERED: 0
PSCL4 COMMIT LATE MSHR PREFETCHES: 0
PSCL4 MPKI TOTAL: 0 MSHR LATE: 0 PQ LATE: 0 COMMIT LATE: 0 MISSED OPPORTUNITY: 0 UNCOVERED: 0
PSCL4 PREFETCHES SAME FILL-ORIGIN LEVEL: 0 DIFFERENT FILL-ORIGIN LEVEL: 0

PSCL3 SPEC fills:          0  NON-SPEC fills:          0
PSCL3 Test counter :          0
PSCL3 Leapfrog:          0
PSCL3 MSHR merge:          0
PSCL3 TOTAL     ACCESS:          0  HIT:          0  MISS:          0  HIT %:       -nan  MISS %:       -nan   MPKI: 0
PSCL3 PREFETCH  REQUESTED:          0  ISSUED:          0  USEFUL:          0  USELESS:          0
PSCL3 USEFUL LOAD PREFETCHES:          0 PREFETCH ISSUED TO LOWER LEVEL:          0  ACCURACY: -nan
PSCL3 TIMELY PREFETCHES:          0 LATE PREFETCHES: 0 DROPPED PREFETCHES: 0
PSCL3 COMMIT LATE PREFETCHES: 0 MISSED OPPORTUNITY: 0 LATE IN PQ: 0 UNCOVERED: 0
PSCL3 COMMIT LATE MSHR PREFETCHES: 0
PSCL3 MPKI TOTAL: 0 MSHR LATE: 0 PQ LATE: 0 COMMIT LATE: 0 MISSED OPPORTUNITY: 0 UNCOVERED: 0
PSCL3 PREFETCHES SAME FILL-ORIGIN LEVEL: 0 DIFFERENT FILL-ORIGIN LEVEL: 0

PSCL2 SPEC fills:          0  NON-SPEC fills:          0
PSCL2 Test counter :          0
PSCL2 Leapfrog:          0
PSCL2 MSHR merge:          0
PSCL2 TOTAL     ACCESS:          0  HIT:          0  MISS:          0  HIT %:       -nan  MISS %:       -nan   MPKI: 0
PSCL2 PREFETCH  REQUESTED:          0  ISSUED:          0  USEFUL:          0  USELESS:          0
PSCL2 USEFUL LOAD PREFETCHES:          0 PREFETCH ISSUED TO LOWER LEVEL:          0  ACCURACY: -nan
PSCL2 TIMELY PREFETCHES:          0 LATE PREFETCHES: 0 DROPPED PREFETCHES: 0
PSCL2 COMMIT LATE PREFETCHES: 0 MISSED OPPORTUNITY: 0 LATE IN PQ: 0 UNCOVERED: 0
PSCL2 COMMIT LATE MSHR PREFETCHES: 0
PSCL2 MPKI TOTAL: 0 MSHR LATE: 0 PQ LATE: 0 COMMIT LATE: 0 MISSED OPPORTUNITY: 0 UNCOVERED: 0
PSCL2 PREFETCHES SAME FILL-ORIGIN LEVEL: 0 DIFFERENT FILL-ORIGIN LEVEL: 0

LLC SPEC fills:          0  NON-SPEC fills:     542205
LLC Test counter :          0
LLC Leapfrog:          0
LLC MSHR merge:          0
LLC TOTAL     ACCESS:    4919173  HIT:     652204  MISS:    4266969  HIT %:    13.2584  MISS %:    86.7416   MPKI: 21.3348
LLC LOAD      TOTAL       ACCESS:     740179  HIT:      64446  MISS:     675733  HIT %:    8.70681  MISS %:    91.2932   MPKI: 3.37866
LLC LOAD      NON_SPEC    ACCESS:     588678  HIT:      46458  MISS:     542220  HIT %:    7.89192  MISS %:    92.1081   MPKI: 2.7111
LLC LOAD      SPEC        ACCESS:     151501  HIT:      17988  MISS:     133513  HIT %:    11.8732  MISS %:    88.1268   MPKI: 0.667565
LLC RFO       NON_SPEC    ACCESS:     144750  HIT:       3162  MISS:     141588  HIT %:    2.18446  MISS %:    97.8155   MPKI: 0.70794
LLC PREFETCH  NON_SPEC    ACCESS:    3335862  HIT:      68827  MISS:    3267035  HIT %:    2.06324  MISS %:    97.9368   MPKI: 16.3352
LLC WRITEBACK NON_SPEC    ACCESS:     492198  HIT:     485226  MISS:       6972  HIT %:    98.5835  MISS %:     1.4165   MPKI: 0.03486
LLC CLEAN_EVICTION NON_SPEC    ACCESS:     172941  HIT:      29570  MISS:     143371  HIT %:    17.0983  MISS %:    82.9017   MPKI: 0.716855
LLC COMMIT LOAD NON_SPEC    ACCESS:        739  HIT:        350  MISS:        389  HIT %:    47.3613  MISS %:    52.6387   MPKI: 0.001945
LLC LOAD TRANSLATION NON_SPEC    ACCESS:      32496  HIT:        619  MISS:      31877  HIT %:    1.90485  MISS %:    98.0952   MPKI: 0.159385
LLC TRANSLATION FROM L1D PREFETCHER NON_SPEC    ACCESS:          8  HIT:          4  MISS:          4  HIT %:         50  MISS %:         50   MPKI: 2e-05
LLC PREFETCH  REQUESTED:          0  ISSUED:          0  USEFUL:      11409  USELESS:    3249692
LLC USEFUL LOAD PREFETCHES:      11409 PREFETCH ISSUED TO LOWER LEVEL:    3267035  ACCURACY: 0.349216
LLC TIMELY PREFETCHES:      11409 LATE PREFETCHES: 0 DROPPED PREFETCHES: 0
LLC COMMIT LATE PREFETCHES: 0 MISSED OPPORTUNITY: 0 LATE IN PQ: 0 UNCOVERED: 0
LLC COMMIT LATE MSHR PREFETCHES: 0
LLC MPKI TOTAL: 3.37866 MSHR LATE: 0 PQ LATE: 0 COMMIT LATE: 0 MISSED OPPORTUNITY: 0 UNCOVERED: 0
LLC PREFETCHES SAME FILL-ORIGIN LEVEL: 0 DIFFERENT FILL-ORIGIN LEVEL: 0
LLC AVERAGE MISS LATENCY: 126.41 cycles
LLC AVERAGE MISS LATENCY LOAD: 134.413 cycles
LLC AVERAGE MISS LATENCY PREFETCH: 130.314 cycles
LLC AVERAGE MSHR OCCUPANCY: 0.770738
LLC MSHR FULL: 0
LLC RQ	ACCESS:     918173	FORWARD:          0	MERGED:          0	TO_CACHE:     918172
LLC WQ	ACCESS:     665139	FORWARD:          2	MERGED:          0	TO_CACHE:     665139
LLC PQ	ACCESS:    3335862	FORWARD:          0	MERGED:          0	TO_CACHE:    3335861

LLC Dense regions hint to LLC: 0

RAW hits: 15857
Loads Generated: 49181502
Loads sent to L1D: 49165645
Stores Generated: 5542573
Stores sent to L1D: 5542575
Major fault: 0 Minor fault: 27212
Allocated PAGES: 27212
Total Load insts: 61472165
Total Non-spec loads: 17113178
Percentage of speculative loads: 72.1611

LeapFrogging counter: 8592
Commit hits: 20647433 miss: 11623098
Commit hit %: 63.9823 miss %: 36.0177
Commits not translated: 0
Loads retired: 2630182
Stores retired: 5542575
Cache fills: 2630182
L1D response latency: 57.9296 cycles
Load retirement latency: 80.5612 cycles
OOO test counter: 0
Discarded buffer inserts: 20647433 hits: 22490 hit %: 0.108924
Filter prediction accuracy: 99.9922

stream: 
stream:times selected: 11322699
stream:pref_filled: 4524395
stream:pref_useful: 1219711
stream:pref_late: 39138
stream:misses: 860087
stream:misses_by_poll: 0

CS: 
CS:times selected: 3594774
CS:pref_filled: 2714866
CS:pref_useful: 2369425
CS:pref_late: 17524
CS:misses: 174483
CS:misses_by_poll: 40893

CPLX: 
CPLX:times selected: 7666233
CPLX:pref_filled: 109577
CPLX:pref_useful: 30015
CPLX:pref_late: 729
CPLX:misses: 3215466
CPLX:misses_by_poll: 4848

NL_L1: 
NL:times selected: 59812
NL:pref_filled: 31767
NL:pref_useful: 9979
NL:pref_late: 98
NL:misses: 31109
NL:misses_by_poll: 1201

total selections: 22643518
total_filled: 5041569
total_useful: 2751238
total_late: 58987
total_polluted: 46942
total_misses_after_warmup: 2630239
conflicts: 196
Degree Incremented Times: 144046
Degree Decremented Times: 516790

L1 IP Table Write Accesses: 37555499
L1 IP Table Read Accesses: 37555303
L1 RST Write Accesses: 7624281
L1 RST Read Accesses: 15248562
L1 CSPT Write Accesses: 7624281
L1 CSPT Read Accesses: 12202669
L1 RR Filter Tag Write Accesses: 7017242
L1 RR Filter Tag Read Accesses: 470513312
L1 IP Table Tag Write Accesses: 37555680
L1 IP Table Tag Read Accesses: 37555680
L1 RST Tag Write Accesses: 0
L1 RST Tag Read Accesses: 70420060
L1 RR Filter Write Accesses: 0
L1 RR Filter Read Accesses: 16568683
test: 4329979

DRAM Statistics
 CHANNEL 0
 RQ ROW_BUFFER_HIT:    1782152  ROW_BUFFER_MISS:    2334441
 DBUS_CONGESTED:       8055
 WQ ROW_BUFFER_HIT:     212521  ROW_BUFFER_MISS:     446940  FULL:          0

 AVG_CONGESTED_CYCLE: 4
 All warmup complete: 2
Channel 0 Bank busy for read cycles: 0
Channel 0 Bank busy for write cycles: 0
Channel 0
Rank 0
0banks busy for read cycles: 231563718
0banks busy for write cycles: 315625
1banks busy for read cycles: 191888318
1banks busy for write cycles: 51976176
2banks busy for read cycles: 76066432
2banks busy for write cycles: 17950403
3banks busy for read cycles: 19665903
3banks busy for write cycles: 6143999
4banks busy for read cycles: 6739153
4banks busy for write cycles: 2390446
5banks busy for read cycles: 1199237
5banks busy for write cycles: 1148290
6banks busy for read cycles: 240767
6banks busy for write cycles: 763320
7banks busy for read cycles: 142135
7banks busy for write cycles: 740571
8banks busy for read cycles: 124123
8banks busy for write cycles: 3228520

CPU 0 Branch Prediction Accuracy: 85.7266% MPKI: 31.0332 Average ROB Occupancy at Mispredict: 6.69261
Branch types
NOT_BRANCH: 156515655 78.2578%
BRANCH_DIRECT_JUMP: 5431 0.0027155%
BRANCH_INDIRECT: 2 1e-06%
BRANCH_CONDITIONAL: 43478066 21.739%
BRANCH_DIRECT_CALL: 250 0.000125%
BRANCH_INDIRECT_CALL: 6 3e-06%
BRANCH_RETURN: 256 0.000128%
BRANCH_OTHER: 0 0%

DRAM PAGES: 1048576
Allocated PAGES: 27212
