
*** ChampSim Multicore Out-of-Order Simulator ***

Warmup Instructions: 50000000
Simulation Instructions: 200000000
Number of CPUs: 1
LLC sets: 2048
LLC ways: 16
L0D sets: 16
L0D ways: 2
ROB size: 352
LQ size: 128
SQ size: 72
Secure Berti: OFF
Berti: OFF
Berti Fill: OFF
On commit prefetching: OFF
Hit-based filter: ON
Time-guarding: ON
Free-slotting: ON
Leap-frogging: ON
Train prefetcher on L0D bypass: OFF
No translation penalty for prefetchers: OFF
Prefetch to L0D only: OFF
Prefetch to L1D only: OFF
Clean evictions: ON
Commit loads: ON
Commit write: ON
Fill commit loads to L2C, LLC: ON
DRAM IO FREQUENCY: 6400
ROB SIZE: 352
Off-chip DRAM Size: 4096 MB Channels: 1 Width: 64-bit Data Rate: 6400 MT/s
CPU 0 runs /home/sumon/secure_berti/GhostMinion/../../traces/gap/bfs-3.trace.gz
.gz
BTB has LRU replacement policy
ITLB has LRU replacement policy
DTLB has LRU replacement policy
STLB has LRU replacement policy
L1I has LRU replacement policy
L0D has LRU replacement policy
IP Table Entries: 1024
CSPT Entries: 128
RR_ENTRIES: 32
RST_ENTRIES: 8
L1D has LRU replacement policy
L2C has LRU replacement policy
LLC has LRU replacement policy
Heartbeat CPU 0 instructions: 10000002 cycles: 2973577 heartbeat IPC: 3.36295 cumulative IPC: 3.36295 (Simulation time: 0 hr 0 min 30 sec) 
Heartbeat CPU 0 instructions: 20000002 cycles: 6109585 heartbeat IPC: 3.18877 cumulative IPC: 3.27355 (Simulation time: 0 hr 1 min 29 sec) 
Heartbeat CPU 0 instructions: 30000002 cycles: 9238885 heartbeat IPC: 3.1956 cumulative IPC: 3.24715 (Simulation time: 0 hr 2 min 11 sec) 
Heartbeat CPU 0 instructions: 40000003 cycles: 12368134 heartbeat IPC: 3.19566 cumulative IPC: 3.23412 (Simulation time: 0 hr 2 min 54 sec) 
Heartbeat CPU 0 instructions: 50000003 cycles: 15523537 heartbeat IPC: 3.16917 cumulative IPC: 3.22092 (Simulation time: 0 hr 3 min 35 sec) 

Warmup complete CPU 0 instructions: 50000003 cycles: 15523537 (Simulation time: 0 hr 3 min 35 sec) 

Heartbeat CPU 0 instructions: 60000000 cycles: 57370442 heartbeat IPC: 0.238966 cumulative IPC: 0.238966 (Simulation time: 0 hr 4 min 21 sec) 
Heartbeat CPU 0 instructions: 70000001 cycles: 82443336 heartbeat IPC: 0.398837 cumulative IPC: 0.298865 (Simulation time: 0 hr 4 min 56 sec) 
Heartbeat CPU 0 instructions: 80000001 cycles: 96370206 heartbeat IPC: 0.718036 cumulative IPC: 0.371073 (Simulation time: 0 hr 5 min 24 sec) 
Heartbeat CPU 0 instructions: 90000000 cycles: 115919236 heartbeat IPC: 0.511534 cumulative IPC: 0.398423 (Simulation time: 0 hr 5 min 55 sec) 
Heartbeat CPU 0 instructions: 100000001 cycles: 150893188 heartbeat IPC: 0.285927 cumulative IPC: 0.369359 (Simulation time: 0 hr 6 min 40 sec) 
Heartbeat CPU 0 instructions: 110000000 cycles: 186327766 heartbeat IPC: 0.28221 cumulative IPC: 0.351279 (Simulation time: 0 hr 7 min 28 sec) 
Heartbeat CPU 0 instructions: 120000001 cycles: 223549457 heartbeat IPC: 0.268661 cumulative IPC: 0.336497 (Simulation time: 0 hr 8 min 13 sec) 
Heartbeat CPU 0 instructions: 130000000 cycles: 257592391 heartbeat IPC: 0.293747 cumulative IPC: 0.330484 (Simulation time: 0 hr 8 min 53 sec) 
Heartbeat CPU 0 instructions: 140000001 cycles: 278196910 heartbeat IPC: 0.48533 cumulative IPC: 0.342631 (Simulation time: 0 hr 9 min 23 sec) 
Heartbeat CPU 0 instructions: 150000000 cycles: 296059402 heartbeat IPC: 0.559832 cumulative IPC: 0.356461 (Simulation time: 0 hr 9 min 55 sec) 
Heartbeat CPU 0 instructions: 160000001 cycles: 319405504 heartbeat IPC: 0.428337 cumulative IPC: 0.361983 (Simulation time: 0 hr 10 min 27 sec) 
Heartbeat CPU 0 instructions: 170000000 cycles: 364334837 heartbeat IPC: 0.222572 cumulative IPC: 0.344026 (Simulation time: 0 hr 11 min 24 sec) 
Heartbeat CPU 0 instructions: 180000001 cycles: 405185911 heartbeat IPC: 0.244792 cumulative IPC: 0.333622 (Simulation time: 0 hr 12 min 28 sec) 
Heartbeat CPU 0 instructions: 190000000 cycles: 435081368 heartbeat IPC: 0.334499 cumulative IPC: 0.333685 (Simulation time: 0 hr 13 min 24 sec) 
Heartbeat CPU 0 instructions: 200000000 cycles: 474654988 heartbeat IPC: 0.252694 cumulative IPC: 0.326704 (Simulation time: 0 hr 14 min 7 sec) 
Heartbeat CPU 0 instructions: 210000002 cycles: 510782216 heartbeat IPC: 0.2768 cumulative IPC: 0.323063 (Simulation time: 0 hr 14 min 47 sec) 
Heartbeat CPU 0 instructions: 220000000 cycles: 533771040 heartbeat IPC: 0.434994 cumulative IPC: 0.328029 (Simulation time: 0 hr 15 min 18 sec) 
Heartbeat CPU 0 instructions: 230000000 cycles: 548848753 heartbeat IPC: 0.663231 cumulative IPC: 0.337505 (Simulation time: 0 hr 15 min 46 sec) 
Heartbeat CPU 0 instructions: 240000000 cycles: 570264277 heartbeat IPC: 0.466951 cumulative IPC: 0.342502 (Simulation time: 0 hr 16 min 17 sec) 
Heartbeat CPU 0 instructions: 250000001 cycles: 603057503 heartbeat IPC: 0.304941 cumulative IPC: 0.340406 (Simulation time: 0 hr 16 min 58 sec) 
Finished CPU 0 instructions: 200000000 cycles: 587533969 cumulative IPC: 0.340406 (Simulation time: 0 hr 16 min 58 sec) 
 Instruction ID: 250000003

ChampSim completed all CPUs

Region of Interest Statistics

CPU 0 cumulative IPC: 0.340406 instructions: 200000000 cycles: 587533969
ITLB SPEC fills:          0  NON-SPEC fills:          0
ITLB Test counter :          0
ITLB Leapfrog:          0
ITLB MSHR merge:          0
ITLB TOTAL     ACCESS:   33873727  HIT:   33873727  MISS:          0  HIT %:        100  MISS %:          0   MPKI: 0
ITLB LOAD TRANSLATION NON_SPEC    ACCESS:   33873727  HIT:   33873727  MISS:          0  HIT %:        100  MISS %:          0   MPKI: 0
ITLB PREFETCH  REQUESTED:          0  ISSUED:          0  USEFUL:          0  USELESS:          0
ITLB USEFUL LOAD PREFETCHES:          0 PREFETCH ISSUED TO LOWER LEVEL:          0  ACCURACY: -nan
ITLB TIMELY PREFETCHES:          0 LATE PREFETCHES: 0 DROPPED PREFETCHES: 0
ITLB COMMIT LATE PREFETCHES: 0 MISSED OPPORTUNITY: 0 LATE IN PQ: 0 UNCOVERED: 0
ITLB COMMIT LATE MSHR PREFETCHES: 0
ITLB MPKI TOTAL: 0 MSHR LATE: 0 PQ LATE: 0 COMMIT LATE: 0 MISSED OPPORTUNITY: 0 UNCOVERED: 0
ITLB PREFETCHES SAME FILL-ORIGIN LEVEL: 0 DIFFERENT FILL-ORIGIN LEVEL: 0
ITLB AVERAGE MISS LATENCY: -nan cycles
ITLB AVERAGE MISS LATENCY LOAD: -nan cycles
ITLB AVERAGE MISS LATENCY PREFETCH: -nan cycles
ITLB AVERAGE MSHR OCCUPANCY: 0
ITLB MSHR FULL: 0
ITLB RQ	ACCESS:   41439807	FORWARD:          0	MERGED:    7566081	TO_CACHE:   33873726

DTLB SPEC fills:          0  NON-SPEC fills:          0
DTLB Test counter :          0
DTLB Leapfrog:          0
DTLB MSHR merge:          0
DTLB TOTAL     ACCESS:   44932605  HIT:   44200560  MISS:     732045  HIT %:    98.3708  MISS %:    1.62921   MPKI: 3.66023
DTLB LOAD TRANSLATION NON_SPEC    ACCESS:   44932605  HIT:   44200560  MISS:     732045  HIT %:    98.3708  MISS %:    1.62921   MPKI: 3.66023
DTLB PREFETCH  REQUESTED:          0  ISSUED:          0  USEFUL:          0  USELESS:          0
DTLB USEFUL LOAD PREFETCHES:          0 PREFETCH ISSUED TO LOWER LEVEL:          0  ACCURACY: -nan
DTLB TIMELY PREFETCHES:          0 LATE PREFETCHES: 0 DROPPED PREFETCHES: 0
DTLB COMMIT LATE PREFETCHES: 0 MISSED OPPORTUNITY: 0 LATE IN PQ: 0 UNCOVERED: 0
DTLB COMMIT LATE MSHR PREFETCHES: 0
DTLB MPKI TOTAL: 0 MSHR LATE: 0 PQ LATE: 0 COMMIT LATE: 0 MISSED OPPORTUNITY: 0 UNCOVERED: 0
DTLB PREFETCHES SAME FILL-ORIGIN LEVEL: 0 DIFFERENT FILL-ORIGIN LEVEL: 0
DTLB AVERAGE MISS LATENCY: 38.2184 cycles
DTLB AVERAGE MISS LATENCY LOAD: -nan cycles
DTLB AVERAGE MISS LATENCY PREFETCH: -nan cycles
DTLB AVERAGE MSHR OCCUPANCY: 0.0317666
DTLB MSHR FULL: 0.000196287
DTLB RQ	ACCESS:   47617697	FORWARD:          0	MERGED:    2620387	TO_CACHE:   44997310

STLB SPEC fills:          0  NON-SPEC fills:          0
STLB Test counter :          0
STLB Leapfrog:          0
STLB MSHR merge:          0
STLB TOTAL     ACCESS:    6408272  HIT:    6262082  MISS:     146190  HIT %:    97.7187  MISS %:    2.28127   MPKI: 0.73095
STLB LOAD TRANSLATION NON_SPEC    ACCESS:     732045  HIT:     585861  MISS:     146184  HIT %:    80.0307  MISS %:    19.9693   MPKI: 0.73092
STLB TRANSLATION FROM L1D PREFETCHER NON_SPEC    ACCESS:    5676227  HIT:    5676221  MISS:          6  HIT %:    99.9999  MISS %: 0.000105704   MPKI: 3e-05
STLB PREFETCH  REQUESTED:          0  ISSUED:          0  USEFUL:          5  USELESS:          1
STLB USEFUL LOAD PREFETCHES:          5 PREFETCH ISSUED TO LOWER LEVEL:          0  ACCURACY: inf
STLB TIMELY PREFETCHES:          5 LATE PREFETCHES: 0 DROPPED PREFETCHES: 0
STLB COMMIT LATE PREFETCHES: 0 MISSED OPPORTUNITY: 0 LATE IN PQ: 0 UNCOVERED: 0
STLB COMMIT LATE MSHR PREFETCHES: 0
STLB MPKI TOTAL: 0 MSHR LATE: 0 PQ LATE: 0 COMMIT LATE: 0 MISSED OPPORTUNITY: 0 UNCOVERED: 0
STLB PREFETCHES SAME FILL-ORIGIN LEVEL: 0 DIFFERENT FILL-ORIGIN LEVEL: 0
STLB AVERAGE MISS LATENCY: 145.973 cycles
STLB AVERAGE MISS LATENCY LOAD: -nan cycles
STLB AVERAGE MISS LATENCY PREFETCH: -nan cycles
STLB AVERAGE MSHR OCCUPANCY: 0.0200586
STLB MSHR FULL: 0
STLB RQ	ACCESS:    7498352	FORWARD:          0	MERGED:    1090078	TO_CACHE:    6408274

STLB Hit, L1D data hit: 0
STLB Hit, L2C data hit: 0
STLB Hit, LLC data hit: 0
STLB Hit, LLC data miss: 0
STLB STLB hints to L2: 0
L0D SPEC fills:   21715153  NON-SPEC fills:          0
L0D TimeGuard Request with older TS:      79844 Restricted eviction:      31732 read:        323
L0D Test counter :          0
L0D Leapfrog:          0
L0D MSHR merge:     342610
L0D TOTAL     ACCESS:   39638272  HIT:    5280816  MISS:   34357456  HIT %:    13.3225  MISS %:    86.6775   MPKI: 171.787
L0D LOAD      TOTAL       ACCESS:   39638272  HIT:    5280816  MISS:   34357456  HIT %:    13.3225  MISS %:    86.6775   MPKI: 171.787
L0D LOAD      NON_SPEC    ACCESS:   12611185  HIT:        614  MISS:   12610571  HIT %: 0.00486869  MISS %:    99.9951   MPKI: 63.0529
L0D LOAD      SPEC        ACCESS:   27027087  HIT:    5280202  MISS:   21746885  HIT %:    19.5367  MISS %:    80.4633   MPKI: 108.734
L0D PREFETCH  REQUESTED:          0  ISSUED:          0  USEFUL:          0  USELESS:          0
L0D USEFUL LOAD PREFETCHES:          0 PREFETCH ISSUED TO LOWER LEVEL:          0  ACCURACY: -nan
L0D TIMELY PREFETCHES:          0 LATE PREFETCHES: 0 DROPPED PREFETCHES: 0
L0D COMMIT LATE PREFETCHES: 0 MISSED OPPORTUNITY: 0 LATE IN PQ: 0 UNCOVERED: 0
L0D COMMIT LATE MSHR PREFETCHES: 0
L0D MPKI TOTAL: 173.5 MSHR LATE: 0 PQ LATE: 0 COMMIT LATE: 0 MISSED OPPORTUNITY: 0 UNCOVERED: 0
L0D PREFETCHES SAME FILL-ORIGIN LEVEL: 0 DIFFERENT FILL-ORIGIN LEVEL: 0
L0D AVERAGE MISS LATENCY: 15.7859 cycles
L0D AVERAGE MISS LATENCY LOAD: 15.7859 cycles
L0D AVERAGE MISS LATENCY PREFETCH: -nan cycles
L0D AVERAGE MSHR OCCUPANCY: 1.20169
L0D MSHR FULL: 0.0658161
L0D RQ	ACCESS:   47495042	FORWARD:          0	MERGED:    7514165	TO_CACHE:   39980877
L0D WQ	ACCESS:    7636820	FORWARD:          0	MERGED:          0	TO_CACHE:    7636820

L1D SPEC fills:          0  NON-SPEC fills:    1511146
L1D Test counter :          0
L1D Leapfrog:          0
L1D MSHR merge:     273744
L1D TOTAL     ACCESS:   49083671  HIT:   37230197  MISS:   11853474  HIT %:    75.8505  MISS %:    24.1495   MPKI: 59.2674
L1D LOAD      TOTAL       ACCESS:   34357103  HIT:   30667163  MISS:    3689940  HIT %:      89.26  MISS %:      10.74   MPKI: 18.4497
L1D LOAD      NON_SPEC    ACCESS:   12610442  HIT:   11099296  MISS:    1511146  HIT %:    88.0167  MISS %:    11.9833   MPKI: 7.55573
L1D LOAD      SPEC        ACCESS:   21746661  HIT:   19567867  MISS:    2178794  HIT %:     89.981  MISS %:     10.019   MPKI: 10.894
L1D RFO       NON_SPEC    ACCESS:    5907897  HIT:    5627635  MISS:     280262  HIT %:    95.2561  MISS %:    4.74385   MPKI: 1.40131
L1D PREFETCH  NON_SPEC    ACCESS:    6319589  HIT:     618700  MISS:    5700889  HIT %:    9.79019  MISS %:    90.2098   MPKI: 28.5044
L1D COMMIT LOAD NON_SPEC    ACCESS:     336397  HIT:     305052  MISS:      31345  HIT %:    90.6821  MISS %:    9.31786   MPKI: 0.156725
L1D COMMIT WRITE NON_SPEC    ACCESS:    2162685  HIT:      11647  MISS:    2151038  HIT %:   0.538544  MISS %:    99.4615   MPKI: 10.7552
L1D PREFETCH  REQUESTED:    6766318  ISSUED:    6766307  USEFUL:    2394978  USELESS:    3305903
L1D USEFUL LOAD PREFETCHES:    2394978 PREFETCH ISSUED TO LOWER LEVEL:    5974294  ACCURACY: 40.0881
L1D TIMELY PREFETCHES:    2394978 LATE PREFETCHES: 273404 DROPPED PREFETCHES: 0
L1D COMMIT LATE PREFETCHES: 0 MISSED OPPORTUNITY: 0 LATE IN PQ: 0 UNCOVERED: 0
L1D COMMIT LATE MSHR PREFETCHES: 0
L1D MPKI TOTAL: 18.4515 MSHR LATE: 1.36702 PQ LATE: 0 COMMIT LATE: 0 MISSED OPPORTUNITY: 0 UNCOVERED: 0
L1D PREFETCHES SAME FILL-ORIGIN LEVEL: 5974294 DIFFERENT FILL-ORIGIN LEVEL: 0
L1D AVERAGE MISS LATENCY: 102.012 cycles
L1D AVERAGE MISS LATENCY LOAD: 98.9871 cycles
L1D AVERAGE MISS LATENCY PREFETCH: 138.615 cycles
L1D AVERAGE MSHR OCCUPANCY: 1.82193
L1D MSHR FULL: 0.0347258
L1D RQ	ACCESS:   34840877	FORWARD:          0	MERGED:     143220	TO_CACHE:   34694260
L1D WQ	ACCESS:    9763958	FORWARD:       3397	MERGED:     250398	TO_CACHE:    9513560
L1D PQ	ACCESS:    6766307	FORWARD:          0	MERGED:          0	TO_CACHE:    6766307

L1D UNIQUE REGIONS ACCESSED: 0
L1D REGIONS CONFLICTS: 0
L1D Cross Page Prefetch Requests: 0
L1D Same Page Prefetch Requests: 10484171
L1D ROI Sum of L1D PQ occupancy: 90605320
L1D PREFETCHES PUSHED FROM L2C: 0
L1I SPEC fills:          0  NON-SPEC fills:          0
L1I Test counter :          0
L1I Leapfrog:          0
L1I MSHR merge:          2
L1I TOTAL     ACCESS:   41439806  HIT:   41439789  MISS:         17  HIT %:        100  MISS %: 4.10234e-05   MPKI: 8.5e-05
L1I LOAD      TOTAL       ACCESS:   41439806  HIT:   41439789  MISS:         17  HIT %:        100  MISS %: 4.10234e-05   MPKI: 8.5e-05
L1I LOAD      NON_SPEC    ACCESS:   41439806  HIT:   41439789  MISS:         17  HIT %:        100  MISS %: 4.10234e-05   MPKI: 8.5e-05
L1I PREFETCH  REQUESTED:          0  ISSUED:          0  USEFUL:          0  USELESS:          0
L1I USEFUL LOAD PREFETCHES:          0 PREFETCH ISSUED TO LOWER LEVEL:          0  ACCURACY: -nan
L1I TIMELY PREFETCHES:          0 LATE PREFETCHES: 0 DROPPED PREFETCHES: 0
L1I COMMIT LATE PREFETCHES: 0 MISSED OPPORTUNITY: 0 LATE IN PQ: 0 UNCOVERED: 0
L1I COMMIT LATE MSHR PREFETCHES: 0
L1I MPKI TOTAL: 9.5e-05 MSHR LATE: 0 PQ LATE: 0 COMMIT LATE: 0 MISSED OPPORTUNITY: 0 UNCOVERED: 0
L1I PREFETCHES SAME FILL-ORIGIN LEVEL: 0 DIFFERENT FILL-ORIGIN LEVEL: 0
L1I AVERAGE MISS LATENCY: 203.529 cycles
L1I AVERAGE MISS LATENCY LOAD: 203.529 cycles
L1I AVERAGE MISS LATENCY PREFETCH: -nan cycles
L1I AVERAGE MSHR OCCUPANCY: 1.93051e-07
L1I MSHR FULL: 0
L1I RQ	ACCESS:   64757980	FORWARD:          0	MERGED:   23318173	TO_CACHE:   41439807

BTB SPEC fills:          0  NON-SPEC fills:          0
BTB Test counter :          0
BTB Leapfrog:          0
BTB MSHR merge:          0
BTB TOTAL     ACCESS:   40442036  HIT:   40441679  MISS:        357  HIT %:    99.9991  MISS %: 0.000882745   MPKI: 0.001785
BTB BRANCH_DIRECT_JUMP	ACCESS:      22041  HIT:      21996  MISS:         45
BTB BRANCH_INDIRECT	ACCESS:          3  HIT:          2  MISS:          1
BTB BRANCH_CONDITIONAL	ACCESS:   40419252  HIT:   40419148  MISS:        104
BTB BRANCH_DIRECT_CALL	ACCESS:        361  HIT:        318  MISS:         43
BTB BRANCH_INDIRECT_CALL	ACCESS:          9  HIT:          6  MISS:          3
BTB BRANCH_RETURN	ACCESS:        370  HIT:        209  MISS:        161
BTB BRANCH_OTHER ACCESS:          0  HIT:          0  MISS:          0

L2C SPEC fills:          0  NON-SPEC fills:     742006
L2C Test counter :          0
L2C Leapfrog:          0
L2C MSHR merge:          0
L2C TOTAL     ACCESS:   13083326  HIT:    3865614  MISS:    9217712  HIT %:    29.5461  MISS %:    70.4539   MPKI: 46.0886
L2C LOAD      TOTAL       ACCESS:    3416277  HIT:    1016627  MISS:    2399650  HIT %:    29.7583  MISS %:    70.2417   MPKI: 11.9983
L2C LOAD      NON_SPEC    ACCESS:    1438423  HIT:     696400  MISS:     742023  HIT %:    48.4141  MISS %:    51.5859   MPKI: 3.71012
L2C LOAD      SPEC        ACCESS:    1977854  HIT:     320227  MISS:    1657627  HIT %:    16.1906  MISS %:    83.8094   MPKI: 8.28814
L2C RFO       NON_SPEC    ACCESS:     280260  HIT:       8064  MISS:     272196  HIT %:    2.87733  MISS %:    97.1227   MPKI: 1.36098
L2C PREFETCH  NON_SPEC    ACCESS:    5974289  HIT:    1120439  MISS:    4853850  HIT %:    18.7543  MISS %:    81.2457   MPKI: 24.2692
L2C WRITEBACK NON_SPEC    ACCESS:     795516  HIT:     795490  MISS:         26  HIT %:    99.9967  MISS %: 0.00326832   MPKI: 0.00013
L2C CLEAN_EVICTION NON_SPEC    ACCESS:    1854702  HIT:     218733  MISS:    1635969  HIT %:    11.7934  MISS %:    88.2066   MPKI: 8.17985
L2C COMMIT LOAD NON_SPEC    ACCESS:      31333  HIT:       9560  MISS:      21773  HIT %:     30.511  MISS %:     69.489   MPKI: 0.108865
L2C LOAD TRANSLATION NON_SPEC    ACCESS:     730919  HIT:     696679  MISS:      34240  HIT %:    95.3155  MISS %:    4.68451   MPKI: 0.1712
L2C TRANSLATION FROM L1D PREFETCHER NON_SPEC    ACCESS:         30  HIT:         22  MISS:          8  HIT %:    73.3333  MISS %:    26.6667   MPKI: 4e-05
L2C PREFETCH  REQUESTED:          0  ISSUED:          0  USEFUL:      83460  USELESS:    4770390
L2C USEFUL LOAD PREFETCHES:      83460 PREFETCH ISSUED TO LOWER LEVEL:    4853850  ACCURACY: 1.71946
L2C TIMELY PREFETCHES:      83460 LATE PREFETCHES: 0 DROPPED PREFETCHES: 0
L2C COMMIT LATE PREFETCHES: 0 MISSED OPPORTUNITY: 0 LATE IN PQ: 0 UNCOVERED: 0
L2C COMMIT LATE MSHR PREFETCHES: 0
L2C MPKI TOTAL: 11.9983 MSHR LATE: 0 PQ LATE: 0 COMMIT LATE: 0 MISSED OPPORTUNITY: 0 UNCOVERED: 0
L2C PREFETCHES SAME FILL-ORIGIN LEVEL: 0 DIFFERENT FILL-ORIGIN LEVEL: 0
L2C AVERAGE MISS LATENCY: 118.152 cycles
L2C AVERAGE MISS LATENCY LOAD: 120.415 cycles
L2C AVERAGE MISS LATENCY PREFETCH: 153.259 cycles
L2C AVERAGE MSHR OCCUPANCY: 2.79144
L2C MSHR FULL: 0
L2C RQ	ACCESS:    4459108	FORWARD:          0	MERGED:          0	TO_CACHE:    4458819
L2C WQ	ACCESS:    2650218	FORWARD:        293	MERGED:          0	TO_CACHE:    2650218
L2C PQ	ACCESS:    5974294	FORWARD:          0	MERGED:          0	TO_CACHE:    5974290

L2C Instructions Evicting Data 17
L2C Translations Evicting Data 33611
L2C Data Evicting Data 5860545
L2C Instructions Evicting Instructions 0
L2C Translations Evicting Instructions 1
L2C Data Evicting Instructions 14
L2C Instructions Evicting Translations 0
L2C Translations Evicting Translations 636
L2C Data Evicting Translations 29266
L2C Dense regions hint from L2: 0
PSCL5 SPEC fills:          0  NON-SPEC fills:          0
PSCL5 Test counter :          0
PSCL5 Leapfrog:          0
PSCL5 MSHR merge:          0
PSCL5 TOTAL     ACCESS:          0  HIT:          0  MISS:          0  HIT %:       -nan  MISS %:       -nan   MPKI: 0
PSCL5 PREFETCH  REQUESTED:          0  ISSUED:          0  USEFUL:          0  USELESS:          0
PSCL5 USEFUL LOAD PREFETCHES:          0 PREFETCH ISSUED TO LOWER LEVEL:          0  ACCURACY: -nan
PSCL5 TIMELY PREFETCHES:          0 LATE PREFETCHES: 0 DROPPED PREFETCHES: 0
PSCL5 COMMIT LATE PREFETCHES: 0 MISSED OPPORTUNITY: 0 LATE IN PQ: 0 UNCOVERED: 0
PSCL5 COMMIT LATE MSHR PREFETCHES: 0
PSCL5 MPKI TOTAL: 0 MSHR LATE: 0 PQ LATE: 0 COMMIT LATE: 0 MISSED OPPORTUNITY: 0 UNCOVERED: 0
PSCL5 PREFETCHES SAME FILL-ORIGIN LEVEL: 0 DIFFERENT FILL-ORIGIN LEVEL: 0

PSCL4 SPEC fills:          0  NON-SPEC fills:          0
PSCL4 Test counter :          0
PSCL4 Leapfrog:          0
PSCL4 MSHR merge:          0
PSCL4 TOTAL     ACCESS:          0  HIT:          0  MISS:          0  HIT %:       -nan  MISS %:       -nan   MPKI: 0
PSCL4 PREFETCH  REQUESTED:          0  ISSUED:          0  USEFUL:          0  USELESS:          0
PSCL4 USEFUL LOAD PREFETCHES:          0 PREFETCH ISSUED TO LOWER LEVEL:          0  ACCURACY: -nan
PSCL4 TIMELY PREFETCHES:          0 LATE PREFETCHES: 0 DROPPED PREFETCHES: 0
PSCL4 COMMIT LATE PREFETCHES: 0 MISSED OPPORTUNITY: 0 LATE IN PQ: 0 UNCOVERED: 0
PSCL4 COMMIT LATE MSHR PREFETCHES: 0
PSCL4 MPKI TOTAL: 0 MSHR LATE: 0 PQ LATE: 0 COMMIT LATE: 0 MISSED OPPORTUNITY: 0 UNCOVERED: 0
PSCL4 PREFETCHES SAME FILL-ORIGIN LEVEL: 0 DIFFERENT FILL-ORIGIN LEVEL: 0

PSCL3 SPEC fills:          0  NON-SPEC fills:          0
PSCL3 Test counter :          0
PSCL3 Leapfrog:          0
PSCL3 MSHR merge:          0
PSCL3 TOTAL     ACCESS:          0  HIT:          0  MISS:          0  HIT %:       -nan  MISS %:       -nan   MPKI: 0
PSCL3 PREFETCH  REQUESTED:          0  ISSUED:          0  USEFUL:          0  USELESS:          0
PSCL3 USEFUL LOAD PREFETCHES:          0 PREFETCH ISSUED TO LOWER LEVEL:          0  ACCURACY: -nan
PSCL3 TIMELY PREFETCHES:          0 LATE PREFETCHES: 0 DROPPED PREFETCHES: 0
PSCL3 COMMIT LATE PREFETCHES: 0 MISSED OPPORTUNITY: 0 LATE IN PQ: 0 UNCOVERED: 0
PSCL3 COMMIT LATE MSHR PREFETCHES: 0
PSCL3 MPKI TOTAL: 0 MSHR LATE: 0 PQ LATE: 0 COMMIT LATE: 0 MISSED OPPORTUNITY: 0 UNCOVERED: 0
PSCL3 PREFETCHES SAME FILL-ORIGIN LEVEL: 0 DIFFERENT FILL-ORIGIN LEVEL: 0

PSCL2 SPEC fills:          0  NON-SPEC fills:          0
PSCL2 Test counter :          0
PSCL2 Leapfrog:          0
PSCL2 MSHR merge:          0
PSCL2 TOTAL     ACCESS:          0  HIT:          0  MISS:          0  HIT %:       -nan  MISS %:       -nan   MPKI: 0
PSCL2 PREFETCH  REQUESTED:          0  ISSUED:          0  USEFUL:          0  USELESS:          0
PSCL2 USEFUL LOAD PREFETCHES:          0 PREFETCH ISSUED TO LOWER LEVEL:          0  ACCURACY: -nan
PSCL2 TIMELY PREFETCHES:          0 LATE PREFETCHES: 0 DROPPED PREFETCHES: 0
PSCL2 COMMIT LATE PREFETCHES: 0 MISSED OPPORTUNITY: 0 LATE IN PQ: 0 UNCOVERED: 0
PSCL2 COMMIT LATE MSHR PREFETCHES: 0
PSCL2 MPKI TOTAL: 0 MSHR LATE: 0 PQ LATE: 0 COMMIT LATE: 0 MISSED OPPORTUNITY: 0 UNCOVERED: 0
PSCL2 PREFETCHES SAME FILL-ORIGIN LEVEL: 0 DIFFERENT FILL-ORIGIN LEVEL: 0

LLC SPEC fills:          0  NON-SPEC fills:     517726
LLC Test counter :          0
LLC Leapfrog:          0
LLC MSHR merge:          0
LLC TOTAL     ACCESS:   10051242  HIT:    3610591  MISS:    6440651  HIT %:    35.9218  MISS %:    64.0782   MPKI: 32.2033
LLC LOAD      TOTAL       ACCESS:    2399640  HIT:    1046429  MISS:    1353211  HIT %:    43.6077  MISS %:    56.3923   MPKI: 6.76605
LLC LOAD      NON_SPEC    ACCESS:     742021  HIT:     224278  MISS:     517743  HIT %:    30.2253  MISS %:    69.7747   MPKI: 2.58872
LLC LOAD      SPEC        ACCESS:    1657619  HIT:     822151  MISS:     835468  HIT %:    49.5983  MISS %:    50.4017   MPKI: 4.17734
LLC RFO       NON_SPEC    ACCESS:     272196  HIT:      12139  MISS:     260057  HIT %:    4.45965  MISS %:    95.5403   MPKI: 1.30028
LLC PREFETCH  NON_SPEC    ACCESS:    4853845  HIT:    1026142  MISS:    3827703  HIT %:    21.1408  MISS %:    78.8592   MPKI: 19.1385
LLC WRITEBACK NON_SPEC    ACCESS:     638787  HIT:     634844  MISS:       3943  HIT %:    99.3827  MISS %:   0.617264   MPKI: 0.019715
LLC CLEAN_EVICTION NON_SPEC    ACCESS:    1830754  HIT:     874287  MISS:     956467  HIT %:    47.7556  MISS %:    52.2444   MPKI: 4.78233
LLC COMMIT LOAD NON_SPEC    ACCESS:      21772  HIT:      15449  MISS:       6323  HIT %:    70.9581  MISS %:    29.0419   MPKI: 0.031615
LLC LOAD TRANSLATION NON_SPEC    ACCESS:      34240  HIT:       1298  MISS:      32942  HIT %:    3.79089  MISS %:    96.2091   MPKI: 0.16471
LLC TRANSLATION FROM L1D PREFETCHER NON_SPEC    ACCESS:          8  HIT:          3  MISS:          5  HIT %:       37.5  MISS %:       62.5   MPKI: 2.5e-05
LLC PREFETCH  REQUESTED:          0  ISSUED:          0  USEFUL:     185553  USELESS:    3640092
LLC USEFUL LOAD PREFETCHES:     185553 PREFETCH ISSUED TO LOWER LEVEL:    3827703  ACCURACY: 4.84763
LLC TIMELY PREFETCHES:     185553 LATE PREFETCHES: 0 DROPPED PREFETCHES: 0
LLC COMMIT LATE PREFETCHES: 0 MISSED OPPORTUNITY: 0 LATE IN PQ: 0 UNCOVERED: 0
LLC COMMIT LATE MSHR PREFETCHES: 0
LLC MPKI TOTAL: 6.76605 MSHR LATE: 0 PQ LATE: 0 COMMIT LATE: 0 MISSED OPPORTUNITY: 0 UNCOVERED: 0
LLC PREFETCHES SAME FILL-ORIGIN LEVEL: 0 DIFFERENT FILL-ORIGIN LEVEL: 0
LLC AVERAGE MISS LATENCY: 136.06 cycles
LLC AVERAGE MISS LATENCY LOAD: 171.312 cycles
LLC AVERAGE MISS LATENCY PREFETCH: 156.264 cycles
LLC AVERAGE MSHR OCCUPANCY: 2.52484
LLC MSHR FULL: 0
LLC RQ	ACCESS:    2727867	FORWARD:          0	MERGED:          0	TO_CACHE:    2727856
LLC WQ	ACCESS:    2469541	FORWARD:         16	MERGED:          0	TO_CACHE:    2469541
LLC PQ	ACCESS:    4853850	FORWARD:          0	MERGED:          0	TO_CACHE:    4853845

LLC Dense regions hint to LLC: 0

RAW hits: 208506
Loads Generated: 47703547
Loads sent to L1D: 47495042
Stores Generated: 7636817
Stores sent to L1D: 7636820
Major fault: 0 Minor fault: 29015
Allocated PAGES: 29015
Total Load insts: 60251918
Total Non-spec loads: 12873068
Percentage of speculative loads: 78.6346

LeapFrogging counter: 453205
Commit hits: 21670873 miss: 13212977
Commit hit %: 62.1229 miss %: 37.8771
Commits not translated: 0
Loads retired: 3689940
Stores retired: 7636820
Cache fills: 3689940
L1D response latency: 98.9871 cycles
Load retirement latency: 168.611 cycles
OOO test counter: 0
Discarded buffer inserts: 21670873 hits: 17339 hit %: 0.0800106
Filter prediction accuracy: 99.9336

stream: 
stream:times selected: 10343609
stream:pref_filled: 4955018
stream:pref_useful: 872662
stream:pref_late: 48929
stream:misses: 821121
stream:misses_by_poll: 0

CS: 
CS:times selected: 3604099
CS:pref_filled: 2657840
CS:pref_useful: 2329445
CS:pref_late: 17748
CS:misses: 258155
CS:misses_by_poll: 37216

CPLX: 
CPLX:times selected: 6698270
CPLX:pref_filled: 154221
CPLX:pref_useful: 25420
CPLX:pref_late: 1533
CPLX:misses: 3887641
CPLX:misses_by_poll: 11007

NL_L1: 
NL:times selected: 30850
NL:pref_filled: 22526
NL:pref_useful: 5020
NL:pref_late: 39
NL:misses: 20762
NL:misses_by_poll: 1101

total selections: 20676828
total_filled: 5700889
total_useful: 2394978
total_late: 72791
total_polluted: 49324
total_misses_after_warmup: 3690291
conflicts: 238
Degree Incremented Times: 151028
Degree Decremented Times: 437277

L1 IP Table Write Accesses: 34357198
L1 IP Table Read Accesses: 34356960
L1 RST Write Accesses: 7234365
L1 RST Read Accesses: 14468730
L1 CSPT Write Accesses: 7234365
L1 CSPT Read Accesses: 11510825
L1 RR Filter Tag Write Accesses: 6766318
L1 RR Filter Tag Read Accesses: 469725624
L1 IP Table Tag Write Accesses: 34357454
L1 IP Table Tag Read Accesses: 34357454
L1 RST Tag Write Accesses: 0
L1 RST Tag Read Accesses: 64858294
L1 RR Filter Write Accesses: 0
L1 RR Filter Read Accesses: 16126105
test: 2984940

DRAM Statistics
 CHANNEL 0
 RQ ROW_BUFFER_HIT:    1902066  ROW_BUFFER_MISS:    3576932
 DBUS_CONGESTED:       9237
 WQ ROW_BUFFER_HIT:     729486  ROW_BUFFER_MISS:    1099966  FULL:        165

 AVG_CONGESTED_CYCLE: 4
 All warmup complete: 2
Channel 0 Bank busy for read cycles: 0
Channel 0 Bank busy for write cycles: 0
Channel 0
Rank 0
0banks busy for read cycles: 147054508
0banks busy for write cycles: 213101
1banks busy for read cycles: 166656783
1banks busy for write cycles: 36272088
2banks busy for read cycles: 82511755
2banks busy for write cycles: 16720397
3banks busy for read cycles: 31523266
3banks busy for write cycles: 8305812
4banks busy for read cycles: 19344174
4banks busy for write cycles: 5011800
5banks busy for read cycles: 10631094
5banks busy for write cycles: 4102846
6banks busy for read cycles: 6402554
6banks busy for write cycles: 5042456
7banks busy for read cycles: 3537699
7banks busy for write cycles: 11265436
8banks busy for read cycles: 1848405
8banks busy for write cycles: 31089796

CPU 0 Branch Prediction Accuracy: 88.7511% MPKI: 23.6813 Average ROB Occupancy at Mispredict: 9.89454
Branch types
NOT_BRANCH: 157895415 78.9477%
BRANCH_DIRECT_JUMP: 22041 0.0110205%
BRANCH_INDIRECT: 3 1.5e-06%
BRANCH_CONDITIONAL: 42081441 21.0407%
BRANCH_DIRECT_CALL: 361 0.0001805%
BRANCH_INDIRECT_CALL: 9 4.5e-06%
BRANCH_RETURN: 370 0.000185%
BRANCH_OTHER: 0 0%

DRAM PAGES: 1048576
Allocated PAGES: 29015
