
*** ChampSim Multicore Out-of-Order Simulator ***

Warmup Instructions: 50000000
Simulation Instructions: 200000000
Number of CPUs: 1
LLC sets: 2048
LLC ways: 16
L0D sets: 16
L0D ways: 2
ROB size: 352
LQ size: 128
SQ size: 72
Secure Berti: OFF
Berti: OFF
Berti Fill: OFF
On commit prefetching: OFF
Hit-based filter: ON
Time-guarding: ON
Free-slotting: ON
Leap-frogging: ON
Train prefetcher on L0D bypass: OFF
No translation penalty for prefetchers: OFF
Prefetch to L0D only: OFF
Prefetch to L1D only: OFF
Clean evictions: ON
Commit loads: ON
Commit write: ON
Fill commit loads to L2C, LLC: ON
DRAM IO FREQUENCY: 6400
ROB SIZE: 352
Off-chip DRAM Size: 4096 MB Channels: 1 Width: 64-bit Data Rate: 6400 MT/s
CPU 0 runs /home/sumon/secure_berti/GhostMinion/../../traces/gap/sssp-5.trace.gz
.gz
BTB has LRU replacement policy
ITLB has LRU replacement policy
DTLB has LRU replacement policy
STLB has LRU replacement policy
L1I has LRU replacement policy
L0D has LRU replacement policy
IP Table Entries: 1024
CSPT Entries: 128
RR_ENTRIES: 32
RST_ENTRIES: 8
L1D has LRU replacement policy
L2C has LRU replacement policy
LLC has LRU replacement policy
Heartbeat CPU 0 instructions: 10000001 cycles: 3949015 heartbeat IPC: 2.53228 cumulative IPC: 2.53228 (Simulation time: 0 hr 0 min 42 sec) 
Heartbeat CPU 0 instructions: 20000000 cycles: 7764781 heartbeat IPC: 2.62071 cumulative IPC: 2.57573 (Simulation time: 0 hr 1 min 30 sec) 
Heartbeat CPU 0 instructions: 30000003 cycles: 11537771 heartbeat IPC: 2.65042 cumulative IPC: 2.60016 (Simulation time: 0 hr 2 min 16 sec) 
Heartbeat CPU 0 instructions: 40000000 cycles: 15285498 heartbeat IPC: 2.66828 cumulative IPC: 2.61686 (Simulation time: 0 hr 3 min 5 sec) 
Heartbeat CPU 0 instructions: 50000003 cycles: 19013786 heartbeat IPC: 2.6822 cumulative IPC: 2.62967 (Simulation time: 0 hr 3 min 53 sec) 

Warmup complete CPU 0 instructions: 50000003 cycles: 19013786 (Simulation time: 0 hr 3 min 53 sec) 

Heartbeat CPU 0 instructions: 60000002 cycles: 47408794 heartbeat IPC: 0.352175 cumulative IPC: 0.352175 (Simulation time: 0 hr 4 min 53 sec) 
Heartbeat CPU 0 instructions: 70000001 cycles: 75315733 heartbeat IPC: 0.358334 cumulative IPC: 0.355227 (Simulation time: 0 hr 5 min 52 sec) 
Heartbeat CPU 0 instructions: 80000000 cycles: 102692466 heartbeat IPC: 0.365274 cumulative IPC: 0.358514 (Simulation time: 0 hr 6 min 51 sec) 
Heartbeat CPU 0 instructions: 90000001 cycles: 129680759 heartbeat IPC: 0.370531 cumulative IPC: 0.361445 (Simulation time: 0 hr 7 min 51 sec) 
Heartbeat CPU 0 instructions: 100000000 cycles: 156463548 heartbeat IPC: 0.373374 cumulative IPC: 0.363769 (Simulation time: 0 hr 8 min 51 sec) 
Heartbeat CPU 0 instructions: 110000000 cycles: 182581318 heartbeat IPC: 0.382881 cumulative IPC: 0.366821 (Simulation time: 0 hr 9 min 51 sec) 
Heartbeat CPU 0 instructions: 120000000 cycles: 208296782 heartbeat IPC: 0.388871 cumulative IPC: 0.369817 (Simulation time: 0 hr 10 min 52 sec) 
Heartbeat CPU 0 instructions: 130000000 cycles: 234521355 heartbeat IPC: 0.381322 cumulative IPC: 0.371217 (Simulation time: 0 hr 11 min 52 sec) 
Heartbeat CPU 0 instructions: 140000000 cycles: 260253725 heartbeat IPC: 0.388616 cumulative IPC: 0.373073 (Simulation time: 0 hr 12 min 53 sec) 
Heartbeat CPU 0 instructions: 150000000 cycles: 285662440 heartbeat IPC: 0.393566 cumulative IPC: 0.375025 (Simulation time: 0 hr 13 min 54 sec) 
Heartbeat CPU 0 instructions: 160000000 cycles: 310785167 heartbeat IPC: 0.398046 cumulative IPC: 0.377007 (Simulation time: 0 hr 14 min 55 sec) 
Heartbeat CPU 0 instructions: 170000001 cycles: 335865901 heartbeat IPC: 0.398712 cumulative IPC: 0.378726 (Simulation time: 0 hr 15 min 57 sec) 
Heartbeat CPU 0 instructions: 180000000 cycles: 361039087 heartbeat IPC: 0.397248 cumulative IPC: 0.380089 (Simulation time: 0 hr 16 min 59 sec) 
Heartbeat CPU 0 instructions: 190000000 cycles: 386333222 heartbeat IPC: 0.395349 cumulative IPC: 0.38114 (Simulation time: 0 hr 18 min 0 sec) 
Heartbeat CPU 0 instructions: 200000001 cycles: 411345180 heartbeat IPC: 0.399809 cumulative IPC: 0.38233 (Simulation time: 0 hr 19 min 0 sec) 
Heartbeat CPU 0 instructions: 210000000 cycles: 436052796 heartbeat IPC: 0.404733 cumulative IPC: 0.383657 (Simulation time: 0 hr 20 min 0 sec) 
Heartbeat CPU 0 instructions: 220000000 cycles: 461015128 heartbeat IPC: 0.400604 cumulative IPC: 0.384614 (Simulation time: 0 hr 21 min 1 sec) 
Heartbeat CPU 0 instructions: 230000002 cycles: 485633620 heartbeat IPC: 0.406199 cumulative IPC: 0.385753 (Simulation time: 0 hr 22 min 0 sec) 
Heartbeat CPU 0 instructions: 240000002 cycles: 510274048 heartbeat IPC: 0.405837 cumulative IPC: 0.38676 (Simulation time: 0 hr 22 min 59 sec) 
Heartbeat CPU 0 instructions: 250000000 cycles: 534746296 heartbeat IPC: 0.408626 cumulative IPC: 0.387798 (Simulation time: 0 hr 23 min 57 sec) 
Finished CPU 0 instructions: 200000001 cycles: 515732511 cumulative IPC: 0.387798 (Simulation time: 0 hr 23 min 57 sec) 
 Instruction ID: 250000379

ChampSim completed all CPUs

Region of Interest Statistics

CPU 0 cumulative IPC: 0.387798 instructions: 200000001 cycles: 515732511
ITLB SPEC fills:          0  NON-SPEC fills:          0
ITLB Test counter :          0
ITLB Leapfrog:          0
ITLB MSHR merge:          0
ITLB TOTAL     ACCESS:   24291334  HIT:   24291334  MISS:          0  HIT %:        100  MISS %:          0   MPKI: 0
ITLB LOAD TRANSLATION NON_SPEC    ACCESS:   24291334  HIT:   24291334  MISS:          0  HIT %:        100  MISS %:          0   MPKI: 0
ITLB PREFETCH  REQUESTED:          0  ISSUED:          0  USEFUL:          0  USELESS:          0
ITLB USEFUL LOAD PREFETCHES:          0 PREFETCH ISSUED TO LOWER LEVEL:          0  ACCURACY: -nan
ITLB TIMELY PREFETCHES:          0 LATE PREFETCHES: 0 DROPPED PREFETCHES: 0
ITLB COMMIT LATE PREFETCHES: 0 MISSED OPPORTUNITY: 0 LATE IN PQ: 0 UNCOVERED: 0
ITLB COMMIT LATE MSHR PREFETCHES: 0
ITLB MPKI TOTAL: 0 MSHR LATE: 0 PQ LATE: 0 COMMIT LATE: 0 MISSED OPPORTUNITY: 0 UNCOVERED: 0
ITLB PREFETCHES SAME FILL-ORIGIN LEVEL: 0 DIFFERENT FILL-ORIGIN LEVEL: 0
ITLB AVERAGE MISS LATENCY: -nan cycles
ITLB AVERAGE MISS LATENCY LOAD: -nan cycles
ITLB AVERAGE MISS LATENCY PREFETCH: -nan cycles
ITLB AVERAGE MSHR OCCUPANCY: 0
ITLB MSHR FULL: 0
ITLB RQ	ACCESS:   24964059	FORWARD:          0	MERGED:     672725	TO_CACHE:   24291334

DTLB SPEC fills:          0  NON-SPEC fills:          0
DTLB Test counter :          0
DTLB Leapfrog:          0
DTLB MSHR merge:          0
DTLB TOTAL     ACCESS:   48494797  HIT:   43972959  MISS:    4521838  HIT %:    90.6756  MISS %:    9.32438   MPKI: 22.6092
DTLB LOAD TRANSLATION NON_SPEC    ACCESS:   48494797  HIT:   43972959  MISS:    4521838  HIT %:    90.6756  MISS %:    9.32438   MPKI: 22.6092
DTLB PREFETCH  REQUESTED:          0  ISSUED:          0  USEFUL:          0  USELESS:          0
DTLB USEFUL LOAD PREFETCHES:          0 PREFETCH ISSUED TO LOWER LEVEL:          0  ACCURACY: -nan
DTLB TIMELY PREFETCHES:          0 LATE PREFETCHES: 0 DROPPED PREFETCHES: 0
DTLB COMMIT LATE PREFETCHES: 0 MISSED OPPORTUNITY: 0 LATE IN PQ: 0 UNCOVERED: 0
DTLB COMMIT LATE MSHR PREFETCHES: 0
DTLB MPKI TOTAL: 0 MSHR LATE: 0 PQ LATE: 0 COMMIT LATE: 0 MISSED OPPORTUNITY: 0 UNCOVERED: 0
DTLB PREFETCHES SAME FILL-ORIGIN LEVEL: 0 DIFFERENT FILL-ORIGIN LEVEL: 0
DTLB AVERAGE MISS LATENCY: 12.5655 cycles
DTLB AVERAGE MISS LATENCY LOAD: -nan cycles
DTLB AVERAGE MISS LATENCY PREFETCH: -nan cycles
DTLB AVERAGE MSHR OCCUPANCY: 0.223869
DTLB MSHR FULL: 1.02278e-07
DTLB RQ	ACCESS:   52881888	FORWARD:          0	MERGED:    3995615	TO_CACHE:   48886273

STLB SPEC fills:          0  NON-SPEC fills:          0
STLB Test counter :          0
STLB Leapfrog:          0
STLB MSHR merge:          0
STLB TOTAL     ACCESS:   12458255  HIT:   12399514  MISS:      58741  HIT %:    99.5285  MISS %:   0.471503   MPKI: 0.293705
STLB LOAD TRANSLATION NON_SPEC    ACCESS:    4521838  HIT:    4463097  MISS:      58741  HIT %:    98.7009  MISS %:    1.29905   MPKI: 0.293705
STLB TRANSLATION FROM L1D PREFETCHER NON_SPEC    ACCESS:    7936417  HIT:    7936417  MISS:          0  HIT %:        100  MISS %:          0   MPKI: 0
STLB PREFETCH  REQUESTED:          0  ISSUED:          0  USEFUL:          0  USELESS:          0
STLB USEFUL LOAD PREFETCHES:          0 PREFETCH ISSUED TO LOWER LEVEL:          0  ACCURACY: -nan
STLB TIMELY PREFETCHES:          0 LATE PREFETCHES: 0 DROPPED PREFETCHES: 0
STLB COMMIT LATE PREFETCHES: 0 MISSED OPPORTUNITY: 0 LATE IN PQ: 0 UNCOVERED: 0
STLB COMMIT LATE MSHR PREFETCHES: 0
STLB MPKI TOTAL: 0 MSHR LATE: 0 PQ LATE: 0 COMMIT LATE: 0 MISSED OPPORTUNITY: 0 UNCOVERED: 0
STLB PREFETCHES SAME FILL-ORIGIN LEVEL: 0 DIFFERENT FILL-ORIGIN LEVEL: 0
STLB AVERAGE MISS LATENCY: 257.708 cycles
STLB AVERAGE MISS LATENCY LOAD: -nan cycles
STLB AVERAGE MISS LATENCY PREFETCH: -nan cycles
STLB AVERAGE MSHR OCCUPANCY: 0.0115223
STLB MSHR FULL: 0
STLB RQ	ACCESS:   15671493	FORWARD:          0	MERGED:    3213237	TO_CACHE:   12458256

STLB Hit, L1D data hit: 0
STLB Hit, L2C data hit: 0
STLB Hit, LLC data hit: 0
STLB Hit, LLC data miss: 0
STLB STLB hints to L2: 0
L0D SPEC fills:   26357595  NON-SPEC fills:          0
L0D TimeGuard Request with older TS:    2319200 Restricted eviction:     236690 read:    4348715
L0D Test counter :          0
L0D Leapfrog:          0
L0D MSHR merge:    2005839
L0D TOTAL     ACCESS:   48634699  HIT:   16981565  MISS:   31653134  HIT %:    34.9166  MISS %:    65.0834   MPKI: 158.266
L0D LOAD      TOTAL       ACCESS:   48634699  HIT:   16981565  MISS:   31653134  HIT %:    34.9166  MISS %:    65.0834   MPKI: 158.266
L0D LOAD      NON_SPEC    ACCESS:    5139844  HIT:      80995  MISS:    5058849  HIT %:    1.57583  MISS %:    98.4242   MPKI: 25.2942
L0D LOAD      SPEC        ACCESS:   43494855  HIT:   16900570  MISS:   26594285  HIT %:    38.8565  MISS %:    61.1435   MPKI: 132.971
L0D PREFETCH  REQUESTED:          0  ISSUED:          0  USEFUL:          0  USELESS:          0
L0D USEFUL LOAD PREFETCHES:          0 PREFETCH ISSUED TO LOWER LEVEL:          0  ACCURACY: -nan
L0D TIMELY PREFETCHES:          0 LATE PREFETCHES: 0 DROPPED PREFETCHES: 0
L0D COMMIT LATE PREFETCHES: 0 MISSED OPPORTUNITY: 0 LATE IN PQ: 0 UNCOVERED: 0
L0D COMMIT LATE MSHR PREFETCHES: 0
L0D MPKI TOTAL: 168.295 MSHR LATE: 0 PQ LATE: 0 COMMIT LATE: 0 MISSED OPPORTUNITY: 0 UNCOVERED: 0
L0D PREFETCHES SAME FILL-ORIGIN LEVEL: 0 DIFFERENT FILL-ORIGIN LEVEL: 0
L0D AVERAGE MISS LATENCY: 32.1321 cycles
L0D AVERAGE MISS LATENCY LOAD: 32.1321 cycles
L0D AVERAGE MISS LATENCY PREFETCH: -nan cycles
L0D AVERAGE MSHR OCCUPANCY: 2.12453
L0D MSHR FULL: 0.0419863
L0D RQ	ACCESS:   76700377	FORWARD:          0	MERGED:   26059841	TO_CACHE:   50640536
L0D WQ	ACCESS:    2241352	FORWARD:          0	MERGED:          0	TO_CACHE:    2241352

L1D SPEC fills:          0  NON-SPEC fills:    1628749
L1D Test counter :          0
L1D Leapfrog:          0
L1D MSHR merge:     167531
L1D TOTAL     ACCESS:   52319753  HIT:   25036212  MISS:   27283541  HIT %:    47.8523  MISS %:    52.1477   MPKI: 136.418
L1D LOAD      TOTAL       ACCESS:   31652328  HIT:   22481653  MISS:    9170675  HIT %:    71.0269  MISS %:    28.9731   MPKI: 45.8534
L1D LOAD      NON_SPEC    ACCESS:    5058143  HIT:    3429394  MISS:    1628749  HIT %:    67.7995  MISS %:    32.2005   MPKI: 8.14374
L1D LOAD      SPEC        ACCESS:   26594185  HIT:   19052259  MISS:    7541926  HIT %:    71.6407  MISS %:    28.3593   MPKI: 37.7096
L1D RFO       NON_SPEC    ACCESS:    2047779  HIT:    1502001  MISS:     545778  HIT %:    73.3478  MISS %:    26.6522   MPKI: 2.72889
L1D PREFETCH  NON_SPEC    ACCESS:   10650142  HIT:     611624  MISS:   10038518  HIT %:    5.74287  MISS %:    94.2571   MPKI: 50.1926
L1D COMMIT LOAD NON_SPEC    ACCESS:     509993  HIT:     392534  MISS:     117459  HIT %:    76.9685  MISS %:    23.0315   MPKI: 0.587295
L1D COMMIT WRITE NON_SPEC    ACCESS:    7459511  HIT:      48400  MISS:    7411111  HIT %:   0.648836  MISS %:    99.3512   MPKI: 37.0556
L1D PREFETCH  REQUESTED:   11149660  ISSUED:   11149655  USEFUL:    1330120  USELESS:    8708308
L1D USEFUL LOAD PREFETCHES:    1330120 PREFETCH ISSUED TO LOWER LEVEL:   10205288  ACCURACY: 13.0336
L1D TIMELY PREFETCHES:    1330120 LATE PREFETCHES: 166767 DROPPED PREFETCHES: 0
L1D COMMIT LATE PREFETCHES: 0 MISSED OPPORTUNITY: 0 LATE IN PQ: 0 UNCOVERED: 0
L1D COMMIT LATE MSHR PREFETCHES: 0
L1D MPKI TOTAL: 45.8574 MSHR LATE: 0.833835 PQ LATE: 0 COMMIT LATE: 0 MISSED OPPORTUNITY: 0 UNCOVERED: 0
L1D PREFETCHES SAME FILL-ORIGIN LEVEL: 10205288 DIFFERENT FILL-ORIGIN LEVEL: 0
L1D AVERAGE MISS LATENCY: 82.4559 cycles
L1D AVERAGE MISS LATENCY LOAD: 93.3458 cycles
L1D AVERAGE MISS LATENCY PREFETCH: 133.592 cycles
L1D AVERAGE MSHR OCCUPANCY: 3.92697
L1D MSHR FULL: 0.0467185
L1D RQ	ACCESS:   32440672	FORWARD:          0	MERGED:     271550	TO_CACHE:   32163731
L1D WQ	ACCESS:    9700866	FORWARD:       5391	MERGED:       1158	TO_CACHE:    9699708
L1D PQ	ACCESS:   11149655	FORWARD:          0	MERGED:          0	TO_CACHE:   11149655

L1D UNIQUE REGIONS ACCESSED: 0
L1D REGIONS CONFLICTS: 0
L1D Cross Page Prefetch Requests: 0
L1D Same Page Prefetch Requests: 13723823
L1D ROI Sum of L1D PQ occupancy: 147635354
L1D PREFETCHES PUSHED FROM L2C: 0
L1I SPEC fills:          0  NON-SPEC fills:          0
L1I Test counter :          0
L1I Leapfrog:          0
L1I MSHR merge:          0
L1I TOTAL     ACCESS:   24964057  HIT:   24964057  MISS:          0  HIT %:        100  MISS %:          0   MPKI: 0
L1I LOAD      TOTAL       ACCESS:   24964057  HIT:   24964057  MISS:          0  HIT %:        100  MISS %:          0   MPKI: 0
L1I LOAD      NON_SPEC    ACCESS:   24964057  HIT:   24964057  MISS:          0  HIT %:        100  MISS %:          0   MPKI: 0
L1I PREFETCH  REQUESTED:          0  ISSUED:          0  USEFUL:          0  USELESS:          0
L1I USEFUL LOAD PREFETCHES:          0 PREFETCH ISSUED TO LOWER LEVEL:          0  ACCURACY: -nan
L1I TIMELY PREFETCHES:          0 LATE PREFETCHES: 0 DROPPED PREFETCHES: 0
L1I COMMIT LATE PREFETCHES: 0 MISSED OPPORTUNITY: 0 LATE IN PQ: 0 UNCOVERED: 0
L1I COMMIT LATE MSHR PREFETCHES: 0
L1I MPKI TOTAL: 0 MSHR LATE: 0 PQ LATE: 0 COMMIT LATE: 0 MISSED OPPORTUNITY: 0 UNCOVERED: 0
L1I PREFETCHES SAME FILL-ORIGIN LEVEL: 0 DIFFERENT FILL-ORIGIN LEVEL: 0
L1I AVERAGE MISS LATENCY: -nan cycles
L1I AVERAGE MISS LATENCY LOAD: -nan cycles
L1I AVERAGE MISS LATENCY PREFETCH: -nan cycles
L1I AVERAGE MSHR OCCUPANCY: 0
L1I MSHR FULL: 0
L1I RQ	ACCESS:   38841153	FORWARD:          0	MERGED:   13877094	TO_CACHE:   24964059

BTB SPEC fills:          0  NON-SPEC fills:          0
BTB Test counter :          0
BTB Leapfrog:          0
BTB MSHR merge:          0
BTB TOTAL     ACCESS:   29044147  HIT:   29044001  MISS:        146  HIT %:    99.9995  MISS %: 0.000502683   MPKI: 0.00073
BTB BRANCH_DIRECT_JUMP	ACCESS:    9217196  HIT:    9217156  MISS:         40
BTB BRANCH_INDIRECT	ACCESS:          0  HIT:          0  MISS:          0
BTB BRANCH_CONDITIONAL	ACCESS:   19824303  HIT:   19824221  MISS:         82
BTB BRANCH_DIRECT_CALL	ACCESS:       1324  HIT:       1315  MISS:          9
BTB BRANCH_INDIRECT_CALL	ACCESS:          0  HIT:          0  MISS:          0
BTB BRANCH_RETURN	ACCESS:       1324  HIT:       1309  MISS:         15
BTB BRANCH_OTHER ACCESS:          0  HIT:          0  MISS:          0

L2C SPEC fills:          0  NON-SPEC fills:    1188158
L2C Test counter :          0
L2C Leapfrog:          0
L2C MSHR merge:          0
L2C TOTAL     ACCESS:   27446740  HIT:    4754451  MISS:   22692289  HIT %:    17.3225  MISS %:    82.6775   MPKI: 113.461
L2C LOAD      TOTAL       ACCESS:    9003875  HIT:    1575027  MISS:    7428848  HIT %:    17.4928  MISS %:    82.5072   MPKI: 37.1442
L2C LOAD      NON_SPEC    ACCESS:    1601360  HIT:     413202  MISS:    1188158  HIT %:    25.8032  MISS %:    74.1968   MPKI: 5.94079
L2C LOAD      SPEC        ACCESS:    7402515  HIT:    1161825  MISS:    6240690  HIT %:     15.695  MISS %:     84.305   MPKI: 31.2034
L2C RFO       NON_SPEC    ACCESS:     545755  HIT:     323951  MISS:     221804  HIT %:    59.3583  MISS %:    40.6417   MPKI: 1.10902
L2C PREFETCH  NON_SPEC    ACCESS:   10205269  HIT:    1452585  MISS:    8752684  HIT %:    14.2337  MISS %:    85.7663   MPKI: 43.7634
L2C WRITEBACK NON_SPEC    ACCESS:     950670  HIT:     947386  MISS:       3284  HIT %:    99.6546  MISS %:   0.345441   MPKI: 0.01642
L2C CLEAN_EVICTION NON_SPEC    ACCESS:    6330050  HIT:     176889  MISS:    6153161  HIT %:    2.79443  MISS %:    97.2056   MPKI: 30.7658
L2C COMMIT LOAD NON_SPEC    ACCESS:     117418  HIT:      31340  MISS:      86078  HIT %:     26.691  MISS %:     73.309   MPKI: 0.43039
L2C LOAD TRANSLATION NON_SPEC    ACCESS:     293703  HIT:     247273  MISS:      46430  HIT %:    84.1915  MISS %:    15.8085   MPKI: 0.23215
L2C PREFETCH  REQUESTED:          0  ISSUED:          0  USEFUL:     257836  USELESS:    8495238
L2C USEFUL LOAD PREFETCHES:     257836 PREFETCH ISSUED TO LOWER LEVEL:    8752687  ACCURACY: 2.94579
L2C TIMELY PREFETCHES:     257836 LATE PREFETCHES: 0 DROPPED PREFETCHES: 0
L2C COMMIT LATE PREFETCHES: 0 MISSED OPPORTUNITY: 0 LATE IN PQ: 0 UNCOVERED: 0
L2C COMMIT LATE MSHR PREFETCHES: 0
L2C MPKI TOTAL: 37.1442 MSHR LATE: 0 PQ LATE: 0 COMMIT LATE: 0 MISSED OPPORTUNITY: 0 UNCOVERED: 0
L2C PREFETCHES SAME FILL-ORIGIN LEVEL: 0 DIFFERENT FILL-ORIGIN LEVEL: 0
L2C AVERAGE MISS LATENCY: 87.5933 cycles
L2C AVERAGE MISS LATENCY LOAD: 97.5335 cycles
L2C AVERAGE MISS LATENCY PREFETCH: 138.464 cycles
L2C AVERAGE MSHR OCCUPANCY: 3.71265
L2C MSHR FULL: 0
L2C RQ	ACCESS:    9960848	FORWARD:          0	MERGED:          0	TO_CACHE:    9960752
L2C WQ	ACCESS:    7280720	FORWARD:        112	MERGED:          0	TO_CACHE:    7280720
L2C PQ	ACCESS:   10205288	FORWARD:          0	MERGED:          0	TO_CACHE:   10205272

L2C Instructions Evicting Data 0
L2C Translations Evicting Data 46303
L2C Data Evicting Data 10220069
L2C Instructions Evicting Instructions 0
L2C Translations Evicting Instructions 0
L2C Data Evicting Instructions 0
L2C Instructions Evicting Translations 0
L2C Translations Evicting Translations 127
L2C Data Evicting Translations 28655
L2C Dense regions hint from L2: 0
PSCL5 SPEC fills:          0  NON-SPEC fills:          0
PSCL5 Test counter :          0
PSCL5 Leapfrog:          0
PSCL5 MSHR merge:          0
PSCL5 TOTAL     ACCESS:          0  HIT:          0  MISS:          0  HIT %:       -nan  MISS %:       -nan   MPKI: 0
PSCL5 PREFETCH  REQUESTED:          0  ISSUED:          0  USEFUL:          0  USELESS:          0
PSCL5 USEFUL LOAD PREFETCHES:          0 PREFETCH ISSUED TO LOWER LEVEL:          0  ACCURACY: -nan
PSCL5 TIMELY PREFETCHES:          0 LATE PREFETCHES: 0 DROPPED PREFETCHES: 0
PSCL5 COMMIT LATE PREFETCHES: 0 MISSED OPPORTUNITY: 0 LATE IN PQ: 0 UNCOVERED: 0
PSCL5 COMMIT LATE MSHR PREFETCHES: 0
PSCL5 MPKI TOTAL: 0 MSHR LATE: 0 PQ LATE: 0 COMMIT LATE: 0 MISSED OPPORTUNITY: 0 UNCOVERED: 0
PSCL5 PREFETCHES SAME FILL-ORIGIN LEVEL: 0 DIFFERENT FILL-ORIGIN LEVEL: 0

PSCL4 SPEC fills:          0  NON-SPEC fills:          0
PSCL4 Test counter :          0
PSCL4 Leapfrog:          0
PSCL4 MSHR merge:          0
PSCL4 TOTAL     ACCESS:          0  HIT:          0  MISS:          0  HIT %:       -nan  MISS %:       -nan   MPKI: 0
PSCL4 PREFETCH  REQUESTED:          0  ISSUED:          0  USEFUL:          0  USELESS:          0
PSCL4 USEFUL LOAD PREFETCHES:          0 PREFETCH ISSUED TO LOWER LEVEL:          0  ACCURACY: -nan
PSCL4 TIMELY PREFETCHES:          0 LATE PREFETCHES: 0 DROPPED PREFETCHES: 0
PSCL4 COMMIT LATE PREFETCHES: 0 MISSED OPPORTUNITY: 0 LATE IN PQ: 0 UNCOVERED: 0
PSCL4 COMMIT LATE MSHR PREFETCHES: 0
PSCL4 MPKI TOTAL: 0 MSHR LATE: 0 PQ LATE: 0 COMMIT LATE: 0 MISSED OPPORTUNITY: 0 UNCOVERED: 0
PSCL4 PREFETCHES SAME FILL-ORIGIN LEVEL: 0 DIFFERENT FILL-ORIGIN LEVEL: 0

PSCL3 SPEC fills:          0  NON-SPEC fills:          0
PSCL3 Test counter :          0
PSCL3 Leapfrog:          0
PSCL3 MSHR merge:          0
PSCL3 TOTAL     ACCESS:          0  HIT:          0  MISS:          0  HIT %:       -nan  MISS %:       -nan   MPKI: 0
PSCL3 PREFETCH  REQUESTED:          0  ISSUED:          0  USEFUL:          0  USELESS:          0
PSCL3 USEFUL LOAD PREFETCHES:          0 PREFETCH ISSUED TO LOWER LEVEL:          0  ACCURACY: -nan
PSCL3 TIMELY PREFETCHES:          0 LATE PREFETCHES: 0 DROPPED PREFETCHES: 0
PSCL3 COMMIT LATE PREFETCHES: 0 MISSED OPPORTUNITY: 0 LATE IN PQ: 0 UNCOVERED: 0
PSCL3 COMMIT LATE MSHR PREFETCHES: 0
PSCL3 MPKI TOTAL: 0 MSHR LATE: 0 PQ LATE: 0 COMMIT LATE: 0 MISSED OPPORTUNITY: 0 UNCOVERED: 0
PSCL3 PREFETCHES SAME FILL-ORIGIN LEVEL: 0 DIFFERENT FILL-ORIGIN LEVEL: 0

PSCL2 SPEC fills:          0  NON-SPEC fills:          0
PSCL2 Test counter :          0
PSCL2 Leapfrog:          0
PSCL2 MSHR merge:          0
PSCL2 TOTAL     ACCESS:          0  HIT:          0  MISS:          0  HIT %:       -nan  MISS %:       -nan   MPKI: 0
PSCL2 PREFETCH  REQUESTED:          0  ISSUED:          0  USEFUL:          0  USELESS:          0
PSCL2 USEFUL LOAD PREFETCHES:          0 PREFETCH ISSUED TO LOWER LEVEL:          0  ACCURACY: -nan
PSCL2 TIMELY PREFETCHES:          0 LATE PREFETCHES: 0 DROPPED PREFETCHES: 0
PSCL2 COMMIT LATE PREFETCHES: 0 MISSED OPPORTUNITY: 0 LATE IN PQ: 0 UNCOVERED: 0
PSCL2 COMMIT LATE MSHR PREFETCHES: 0
PSCL2 MPKI TOTAL: 0 MSHR LATE: 0 PQ LATE: 0 COMMIT LATE: 0 MISSED OPPORTUNITY: 0 UNCOVERED: 0
PSCL2 PREFETCHES SAME FILL-ORIGIN LEVEL: 0 DIFFERENT FILL-ORIGIN LEVEL: 0

LLC SPEC fills:          0  NON-SPEC fills:     502055
LLC Test counter :          0
LLC Leapfrog:          0
LLC MSHR merge:          0
LLC TOTAL     ACCESS:   23225440  HIT:   11890300  MISS:   11335140  HIT %:    51.1952  MISS %:    48.8048   MPKI: 56.6757
LLC LOAD      TOTAL       ACCESS:    7428814  HIT:    4246225  MISS:    3182589  HIT %:    57.1589  MISS %:    42.8411   MPKI: 15.9129
LLC LOAD      NON_SPEC    ACCESS:    1188153  HIT:     686098  MISS:     502055  HIT %:    57.7449  MISS %:    42.2551   MPKI: 2.51027
LLC LOAD      SPEC        ACCESS:    6240661  HIT:    3560127  MISS:    2680534  HIT %:    57.0473  MISS %:    42.9527   MPKI: 13.4027
LLC RFO       NON_SPEC    ACCESS:     221801  HIT:     104170  MISS:     117631  HIT %:    46.9655  MISS %:    53.0345   MPKI: 0.588155
LLC PREFETCH  NON_SPEC    ACCESS:    8752673  HIT:    3883908  MISS:    4868765  HIT %:     44.374  MISS %:     55.626   MPKI: 24.3438
LLC WRITEBACK NON_SPEC    ACCESS:     374002  HIT:     364393  MISS:       9609  HIT %:    97.4308  MISS %:    2.56924   MPKI: 0.048045
LLC CLEAN_EVICTION NON_SPEC    ACCESS:    6315650  HIT:    3217311  MISS:    3098339  HIT %:    50.9419  MISS %:    49.0581   MPKI: 15.4917
LLC COMMIT LOAD NON_SPEC    ACCESS:      86070  HIT:      65965  MISS:      20105  HIT %:    76.6411  MISS %:    23.3589   MPKI: 0.100525
LLC LOAD TRANSLATION NON_SPEC    ACCESS:      46430  HIT:       8328  MISS:      38102  HIT %:    17.9367  MISS %:    82.0633   MPKI: 0.19051
LLC PREFETCH  REQUESTED:          0  ISSUED:          0  USEFUL:     622781  USELESS:    4247407
LLC USEFUL LOAD PREFETCHES:     622781 PREFETCH ISSUED TO LOWER LEVEL:    4868768  ACCURACY: 12.7913
LLC TIMELY PREFETCHES:     622781 LATE PREFETCHES: 0 DROPPED PREFETCHES: 0
LLC COMMIT LATE PREFETCHES: 0 MISSED OPPORTUNITY: 0 LATE IN PQ: 0 UNCOVERED: 0
LLC COMMIT LATE MSHR PREFETCHES: 0
LLC MPKI TOTAL: 15.9129 MSHR LATE: 0 PQ LATE: 0 COMMIT LATE: 0 MISSED OPPORTUNITY: 0 UNCOVERED: 0
LLC PREFETCHES SAME FILL-ORIGIN LEVEL: 0 DIFFERENT FILL-ORIGIN LEVEL: 0
LLC AVERAGE MISS LATENCY: 136.382 cycles
LLC AVERAGE MISS LATENCY LOAD: 175.047 cycles
LLC AVERAGE MISS LATENCY PREFETCH: 194.776 cycles
LLC AVERAGE MSHR OCCUPANCY: 2.65358
LLC MSHR FULL: 0
LLC RQ	ACCESS:    7783160	FORWARD:          0	MERGED:          0	TO_CACHE:    7783115
LLC WQ	ACCESS:    6689653	FORWARD:         56	MERGED:          0	TO_CACHE:    6689653
LLC PQ	ACCESS:    8752687	FORWARD:          0	MERGED:          0	TO_CACHE:    8752676

LLC Dense regions hint to LLC: 0

RAW hits: 64555
Loads Generated: 76764932
Loads sent to L1D: 76700377
Stores Generated: 2241351
Stores sent to L1D: 2241352
Major fault: 0 Minor fault: 36864
Allocated PAGES: 36864
Total Load insts: 93556480
Total Non-spec loads: 6294958
Percentage of speculative loads: 93.2715

LeapFrogging counter: 319807
Commit hits: 24174170 miss: 47277307
Commit hit %: 33.833 miss %: 66.167
Commits not translated: 0
Loads retired: 9170670
Stores retired: 2241352
Cache fills: 9170675
L1D response latency: 93.3458 cycles
Load retirement latency: 181.622 cycles
OOO test counter: 0
Discarded buffer inserts: 24174170 hits: 22886 hit %: 0.0946713
Filter prediction accuracy: 99.9722

stream: 
stream:times selected: 15464927
stream:pref_filled: 10069500
stream:pref_useful: 291257
stream:pref_late: 21976
stream:misses: 2257326
stream:misses_by_poll: 0

CS: 
CS:times selected: 2921866
CS:pref_filled: 1524151
CS:pref_useful: 1390948
CS:pref_late: 3337
CS:misses: 171789
CS:misses_by_poll: 16508

CPLX: 
CPLX:times selected: 12473653
CPLX:pref_filled: 387183
CPLX:pref_useful: 17189
CPLX:pref_late: 805
CPLX:misses: 8382288
CPLX:misses_by_poll: 35972

NL_L1: 
NL:times selected: 68914
NL:pref_filled: 64223
NL:pref_useful: 959
NL:pref_late: 31
NL:misses: 66427
NL:misses_by_poll: 5658

total selections: 30929360
total_filled: 10038518
total_useful: 1330120
total_late: 27575
total_polluted: 58138
total_misses_after_warmup: 9171481
conflicts: 97
Degree Incremented Times: 148309
Degree Decremented Times: 440685

L1 IP Table Write Accesses: 31652239
L1 IP Table Read Accesses: 31652142
L1 RST Write Accesses: 12526680
L1 RST Read Accesses: 25053360
L1 CSPT Write Accesses: 12526680
L1 CSPT Read Accesses: 22586805
L1 RR Filter Tag Write Accesses: 11149660
L1 RR Filter Tag Read Accesses: 526444040
L1 IP Table Tag Write Accesses: 31653134
L1 IP Table Tag Read Accesses: 31653134
L1 RST Tag Write Accesses: 0
L1 RST Tag Read Accesses: 110650608
L1 RR Filter Write Accesses: 0
L1 RR Filter Read Accesses: 19960631
test: 4569358

DRAM Statistics
 CHANNEL 0
 RQ ROW_BUFFER_HIT:    1857321  ROW_BUFFER_MISS:    6364420
 DBUS_CONGESTED:       2844
 WQ ROW_BUFFER_HIT:    1473034  ROW_BUFFER_MISS:    2477362  FULL:          0

 AVG_CONGESTED_CYCLE: 5
 All warmup complete: 2
Channel 0 Bank busy for read cycles: 0
Channel 0 Bank busy for write cycles: 0
Channel 0
Rank 0
0banks busy for read cycles: 2105924
0banks busy for write cycles: 1513
1banks busy for read cycles: 100487131
1banks busy for write cycles: 1396549
2banks busy for read cycles: 83490492
2banks busy for write cycles: 1596213
3banks busy for read cycles: 65526682
3banks busy for write cycles: 2015629
4banks busy for read cycles: 54264621
4banks busy for write cycles: 2832925
5banks busy for read cycles: 36430272
5banks busy for write cycles: 4758610
6banks busy for read cycles: 19380979
6banks busy for write cycles: 10740086
7banks busy for read cycles: 7337199
7banks busy for write cycles: 33819840
8banks busy for read cycles: 2705387
8banks busy for write cycles: 86842460

CPU 0 Branch Prediction Accuracy: 97.7638% MPKI: 3.32603 Average ROB Occupancy at Mispredict: 161.494
Branch types
NOT_BRANCH: 170252779 85.1264%
BRANCH_DIRECT_JUMP: 9217196 4.6086%
BRANCH_INDIRECT: 0 0%
BRANCH_CONDITIONAL: 20527371 10.2637%
BRANCH_DIRECT_CALL: 1324 0.000662%
BRANCH_INDIRECT_CALL: 0 0%
BRANCH_RETURN: 1324 0.000662%
BRANCH_OTHER: 0 0%

DRAM PAGES: 1048576
Allocated PAGES: 36864
