Initialize SIGNATURE TABLE
ST_SET: 1
ST_WAY: 256
ST_TAG_BIT: 16
ST_TAG_MASK: ffff

Initialize PATTERN TABLE
PT_SET: 512
PT_WAY: 4
SIG_DELTA_BIT: 7
C_SIG_BIT: 4
C_DELTA_BIT: 4

Initialize PREFETCH FILTER
FILTER_SET: 1024

Initialize PERCEPTRON
PERC_ENTRIES: 4096
PERC_FEATURES: 9
Initialize SIGNATURE TABLE
ST_SET: 1
ST_WAY: 256
ST_TAG_BIT: 16
ST_TAG_MASK: ffff

Initialize PATTERN TABLE
PT_SET: 512
PT_WAY: 4
SIG_DELTA_BIT: 7
C_SIG_BIT: 4
C_DELTA_BIT: 4

Initialize PREFETCH FILTER
FILTER_SET: 1024

Initialize PERCEPTRON
PERC_ENTRIES: 4096
PERC_FEATURES: 9

*** ChampSim Multicore Out-of-Order Simulator ***

Warmup Instructions: 50000000
Simulation Instructions: 200000000
Number of CPUs: 1
LLC sets: 2048
LLC ways: 16
L0D sets: 16
L0D ways: 2
ROB size: 352
LQ size: 128
SQ size: 72
Secure Berti: OFF
Berti: OFF
Berti Fill: OFF
On commit prefetching: OFF
Hit-based filter: OFF
Time-guarding: ON
Free-slotting: ON
Leap-frogging: ON
Train prefetcher on L0D bypass: OFF
No translation penalty for prefetchers: OFF
Prefetch to L0D only: OFF
Prefetch to L1D only: OFF
Clean evictions: ON
Commit loads: ON
Commit write: ON
Fill commit loads to L2C, LLC: ON
DRAM IO FREQUENCY: 6400
ROB SIZE: 352
Off-chip DRAM Size: 4096 MB Channels: 1 Width: 64-bit Data Rate: 6400 MT/s
CPU 0 runs /home/sumon/secure_berti/GhostMinion/../../traces/gap/bfs-3.trace.gz
.gz
BTB has LRU replacement policy
ITLB has LRU replacement policy
DTLB has LRU replacement policy
STLB has LRU replacement policy
L1I has LRU replacement policy
L0D has LRU replacement policy
L1D has LRU replacement policy
PERC_ENTRIES: 4096
L2C has LRU replacement policy
LLC has LRU replacement policy
Heartbeat CPU 0 instructions: 10000002 cycles: 2973577 heartbeat IPC: 3.36295 cumulative IPC: 3.36295 (Simulation time: 0 hr 0 min 51 sec) 
Heartbeat CPU 0 instructions: 20000002 cycles: 6114232 heartbeat IPC: 3.18405 cumulative IPC: 3.27106 (Simulation time: 0 hr 2 min 4 sec) 
Heartbeat CPU 0 instructions: 30000002 cycles: 9248224 heartbeat IPC: 3.19082 cumulative IPC: 3.24387 (Simulation time: 0 hr 3 min 17 sec) 
Heartbeat CPU 0 instructions: 40000003 cycles: 12382291 heartbeat IPC: 3.19074 cumulative IPC: 3.23042 (Simulation time: 0 hr 4 min 31 sec) 
Heartbeat CPU 0 instructions: 50000003 cycles: 15550155 heartbeat IPC: 3.1567 cumulative IPC: 3.2154 (Simulation time: 0 hr 5 min 44 sec) 

Warmup complete CPU 0 instructions: 50000003 cycles: 15550155 (Simulation time: 0 hr 5 min 44 sec) 

Heartbeat CPU 0 instructions: 60000000 cycles: 59715243 heartbeat IPC: 0.226423 cumulative IPC: 0.226423 (Simulation time: 0 hr 7 min 25 sec) 
Heartbeat CPU 0 instructions: 70000001 cycles: 86446989 heartbeat IPC: 0.374087 cumulative IPC: 0.2821 (Simulation time: 0 hr 8 min 46 sec) 
Heartbeat CPU 0 instructions: 80000001 cycles: 100363898 heartbeat IPC: 0.71855 cumulative IPC: 0.353716 (Simulation time: 0 hr 9 min 51 sec) 
Heartbeat CPU 0 instructions: 90000000 cycles: 120328603 heartbeat IPC: 0.500884 cumulative IPC: 0.381758 (Simulation time: 0 hr 11 min 7 sec) 
Heartbeat CPU 0 instructions: 100000001 cycles: 155598136 heartbeat IPC: 0.283531 cumulative IPC: 0.35702 (Simulation time: 0 hr 12 min 48 sec) 
Heartbeat CPU 0 instructions: 110000000 cycles: 191620834 heartbeat IPC: 0.277603 cumulative IPC: 0.340772 (Simulation time: 0 hr 14 min 32 sec) 
Heartbeat CPU 0 instructions: 120000001 cycles: 229725121 heartbeat IPC: 0.262438 cumulative IPC: 0.326836 (Simulation time: 0 hr 16 min 10 sec) 
Heartbeat CPU 0 instructions: 130000000 cycles: 265466984 heartbeat IPC: 0.279784 cumulative IPC: 0.320106 (Simulation time: 0 hr 17 min 40 sec) 
Heartbeat CPU 0 instructions: 140000001 cycles: 286954066 heartbeat IPC: 0.465396 cumulative IPC: 0.331609 (Simulation time: 0 hr 18 min 51 sec) 
Heartbeat CPU 0 instructions: 150000000 cycles: 304828089 heartbeat IPC: 0.559471 cumulative IPC: 0.345688 (Simulation time: 0 hr 20 min 6 sec) 
Heartbeat CPU 0 instructions: 160000001 cycles: 328933817 heartbeat IPC: 0.414839 cumulative IPC: 0.351007 (Simulation time: 0 hr 21 min 23 sec) 
Heartbeat CPU 0 instructions: 170000002 cycles: 374613921 heartbeat IPC: 0.218914 cumulative IPC: 0.334202 (Simulation time: 0 hr 23 min 28 sec) 
Heartbeat CPU 0 instructions: 180000001 cycles: 415539025 heartbeat IPC: 0.244349 cumulative IPC: 0.325009 (Simulation time: 0 hr 25 min 48 sec) 
Heartbeat CPU 0 instructions: 190000000 cycles: 445363092 heartbeat IPC: 0.3353 cumulative IPC: 0.325723 (Simulation time: 0 hr 27 min 51 sec) 
Heartbeat CPU 0 instructions: 200000000 cycles: 486261498 heartbeat IPC: 0.244508 cumulative IPC: 0.318667 (Simulation time: 0 hr 29 min 31 sec) 
Heartbeat CPU 0 instructions: 210000002 cycles: 523973796 heartbeat IPC: 0.265166 cumulative IPC: 0.314698 (Simulation time: 0 hr 31 min 6 sec) 
Heartbeat CPU 0 instructions: 220000000 cycles: 548244880 heartbeat IPC: 0.412013 cumulative IPC: 0.319132 (Simulation time: 0 hr 32 min 21 sec) 
Heartbeat CPU 0 instructions: 230000000 cycles: 563290870 heartbeat IPC: 0.664629 cumulative IPC: 0.328623 (Simulation time: 0 hr 33 min 28 sec) 
Heartbeat CPU 0 instructions: 240000000 cycles: 585292074 heartbeat IPC: 0.454521 cumulative IPC: 0.333484 (Simulation time: 0 hr 34 min 43 sec) 
Heartbeat CPU 0 instructions: 250000001 cycles: 618915385 heartbeat IPC: 0.297413 cumulative IPC: 0.331474 (Simulation time: 0 hr 36 min 19 sec) 
Finished CPU 0 instructions: 200000000 cycles: 603365231 cumulative IPC: 0.331474 (Simulation time: 0 hr 36 min 19 sec) 
 Instruction ID: 250000003

ChampSim completed all CPUs

Region of Interest Statistics

CPU 0 cumulative IPC: 0.331474 instructions: 200000000 cycles: 603365231
ITLB SPEC fills:          0  NON-SPEC fills:          0
ITLB Test counter :          0
ITLB Leapfrog:          0
ITLB MSHR merge:          0
ITLB TOTAL     ACCESS:   33872396  HIT:   33872396  MISS:          0  HIT %:        100  MISS %:          0   MPKI: 0
ITLB LOAD TRANSLATION NON_SPEC    ACCESS:   33872396  HIT:   33872396  MISS:          0  HIT %:        100  MISS %:          0   MPKI: 0
ITLB PREFETCH  REQUESTED:          0  ISSUED:          0  USEFUL:          0  USELESS:          0
ITLB USEFUL LOAD PREFETCHES:          0 PREFETCH ISSUED TO LOWER LEVEL:          0  ACCURACY: -nan
ITLB TIMELY PREFETCHES:          0 LATE PREFETCHES: 0 DROPPED PREFETCHES: 0
ITLB COMMIT LATE PREFETCHES: 0 NORMAL LATE: 0 MISSED OPPORTUNITY: 0 UNCOVERED: 0
ITLB PREFETCHES SAME FILL-ORIGIN LEVEL: 0 DIFFERENT FILL-ORIGIN LEVEL: 0
ITLB AVERAGE MISS LATENCY: -nan cycles
ITLB AVERAGE MISS LATENCY LOAD: -nan cycles
ITLB AVERAGE MISS LATENCY PREFETCH: -nan cycles
ITLB AVERAGE MSHR OCCUPANCY: 0
ITLB MSHR FULL: 0
ITLB RQ	ACCESS:   41438927	FORWARD:          0	MERGED:    7566532	TO_CACHE:   33872395

DTLB SPEC fills:          0  NON-SPEC fills:          0
DTLB Test counter :          0
DTLB Leapfrog:          0
DTLB MSHR merge:          0
DTLB TOTAL     ACCESS:   44834644  HIT:   44102599  MISS:     732045  HIT %:    98.3672  MISS %:    1.63277   MPKI: 3.66023
DTLB LOAD TRANSLATION NON_SPEC    ACCESS:   44834644  HIT:   44102599  MISS:     732045  HIT %:    98.3672  MISS %:    1.63277   MPKI: 3.66023
DTLB PREFETCH  REQUESTED:          0  ISSUED:          0  USEFUL:          0  USELESS:          0
DTLB USEFUL LOAD PREFETCHES:          0 PREFETCH ISSUED TO LOWER LEVEL:          0  ACCURACY: -nan
DTLB TIMELY PREFETCHES:          0 LATE PREFETCHES: 0 DROPPED PREFETCHES: 0
DTLB COMMIT LATE PREFETCHES: 0 NORMAL LATE: 0 MISSED OPPORTUNITY: 0 UNCOVERED: 0
DTLB PREFETCHES SAME FILL-ORIGIN LEVEL: 0 DIFFERENT FILL-ORIGIN LEVEL: 0
DTLB AVERAGE MISS LATENCY: 37.9631 cycles
DTLB AVERAGE MISS LATENCY LOAD: -nan cycles
DTLB AVERAGE MISS LATENCY PREFETCH: -nan cycles
DTLB AVERAGE MSHR OCCUPANCY: 0.030715
DTLB MSHR FULL: 0.000167878
DTLB RQ	ACCESS:   47569855	FORWARD:          0	MERGED:    2675191	TO_CACHE:   44894664

STLB SPEC fills:          0  NON-SPEC fills:          0
STLB Test counter :          0
STLB Leapfrog:          0
STLB MSHR merge:          0
STLB TOTAL     ACCESS:     732045  HIT:     585526  MISS:     146519  HIT %:     79.985  MISS %:     20.015   MPKI: 0.732595
STLB LOAD TRANSLATION NON_SPEC    ACCESS:     732045  HIT:     585526  MISS:     146519  HIT %:     79.985  MISS %:     20.015   MPKI: 0.732595
STLB PREFETCH  REQUESTED:          0  ISSUED:          0  USEFUL:          0  USELESS:          0
STLB USEFUL LOAD PREFETCHES:          0 PREFETCH ISSUED TO LOWER LEVEL:          0  ACCURACY: -nan
STLB TIMELY PREFETCHES:          0 LATE PREFETCHES: 0 DROPPED PREFETCHES: 0
STLB COMMIT LATE PREFETCHES: 0 NORMAL LATE: 0 MISSED OPPORTUNITY: 0 UNCOVERED: 0
STLB PREFETCHES SAME FILL-ORIGIN LEVEL: 0 DIFFERENT FILL-ORIGIN LEVEL: 0
STLB AVERAGE MISS LATENCY: 144.326 cycles
STLB AVERAGE MISS LATENCY LOAD: -nan cycles
STLB AVERAGE MISS LATENCY PREFETCH: -nan cycles
STLB AVERAGE MSHR OCCUPANCY: 0.0664508
STLB MSHR FULL: 0
STLB RQ	ACCESS:     732045	FORWARD:          0	MERGED:          0	TO_CACHE:     732045

STLB Hit, L1D data hit: 0
STLB Hit, L2C data hit: 0
STLB Hit, LLC data hit: 0
STLB Hit, LLC data miss: 0
STLB STLB hints to L2: 0
L0D SPEC fills:   22288970  NON-SPEC fills:          0
L0D TimeGuard Request with older TS:      79179 Restricted eviction:      31114 read:        526
L0D Test counter :          0
L0D Leapfrog:          0
L0D MSHR merge:    1031876
L0D TOTAL     ACCESS:   38901164  HIT:    5725598  MISS:   33175566  HIT %:    14.7183  MISS %:    85.2817   MPKI: 165.878
L0D LOAD      TOTAL       ACCESS:   38901164  HIT:    5725598  MISS:   33175566  HIT %:    14.7183  MISS %:    85.2817   MPKI: 165.878
L0D LOAD      NON_SPEC    ACCESS:   10856092  HIT:        610  MISS:   10855482  HIT %: 0.00561896  MISS %:    99.9944   MPKI: 54.2774
L0D LOAD      SPEC        ACCESS:   28045072  HIT:    5724988  MISS:   22320084  HIT %:    20.4135  MISS %:    79.5865   MPKI: 111.6
L0D PREFETCH  REQUESTED:          0  ISSUED:          0  USEFUL:          0  USELESS:          0
L0D USEFUL LOAD PREFETCHES:          0 PREFETCH ISSUED TO LOWER LEVEL:          0  ACCURACY: -nan
L0D TIMELY PREFETCHES:          0 LATE PREFETCHES: 0 DROPPED PREFETCHES: 0
L0D COMMIT LATE PREFETCHES: 0 NORMAL LATE: 0 MISSED OPPORTUNITY: 0 UNCOVERED: 33175566
L0D PREFETCHES SAME FILL-ORIGIN LEVEL: 0 DIFFERENT FILL-ORIGIN LEVEL: 0
L0D AVERAGE MISS LATENCY: 17.0384 cycles
L0D AVERAGE MISS LATENCY LOAD: 17.0384 cycles
L0D AVERAGE MISS LATENCY PREFETCH: -nan cycles
L0D AVERAGE MSHR OCCUPANCY: 1.26601
L0D MSHR FULL: 0.0704774
L0D RQ	ACCESS:   47468495	FORWARD:          0	MERGED:    7535460	TO_CACHE:   39933035
L0D WQ	ACCESS:    7636820	FORWARD:          0	MERGED:          0	TO_CACHE:    7636820

L1D SPEC fills:          0  NON-SPEC fills:    2170923
L1D Test counter :          0
L1D Leapfrog:          0
L1D MSHR merge:       1192
L1D TOTAL     ACCESS:   70604021  HIT:   60534862  MISS:   10069159  HIT %:    85.7385  MISS %:    14.2615   MPKI: 50.3458
L1D LOAD      TOTAL       ACCESS:   33174373  HIT:   27190374  MISS:    5983999  HIT %:     81.962  MISS %:     18.038   MPKI: 29.92
L1D LOAD      NON_SPEC    ACCESS:   10855325  HIT:    8684402  MISS:    2170923  HIT %:    80.0013  MISS %:    19.9987   MPKI: 10.8546
L1D LOAD      SPEC        ACCESS:   22319048  HIT:   18505972  MISS:    3813076  HIT %:    82.9156  MISS %:    17.0844   MPKI: 19.0654
L1D RFO       NON_SPEC    ACCESS:    4531530  HIT:    4254533  MISS:     276997  HIT %:    93.8873  MISS %:    6.11266   MPKI: 1.38498
L1D COMMIT LOAD NON_SPEC    ACCESS:   10656518  HIT:   10610261  MISS:      46257  HIT %:    99.5659  MISS %:   0.434072   MPKI: 0.231285
L1D COMMIT WRITE NON_SPEC    ACCESS:   22241600  HIT:   18479694  MISS:    3761906  HIT %:    83.0862  MISS %:    16.9138   MPKI: 18.8095
L1D PREFETCH  REQUESTED:          0  ISSUED:          0  USEFUL:          0  USELESS:          0
L1D USEFUL LOAD PREFETCHES:          0 PREFETCH ISSUED TO LOWER LEVEL:          0  ACCURACY: -nan
L1D TIMELY PREFETCHES:          0 LATE PREFETCHES: 0 DROPPED PREFETCHES: 0
L1D COMMIT LATE PREFETCHES: 0 NORMAL LATE: 0 MISSED OPPORTUNITY: 0 UNCOVERED: 5983999
L1D PREFETCHES SAME FILL-ORIGIN LEVEL: 0 DIFFERENT FILL-ORIGIN LEVEL: 0
L1D AVERAGE MISS LATENCY: 45.905 cycles
L1D AVERAGE MISS LATENCY LOAD: 65.5348 cycles
L1D AVERAGE MISS LATENCY PREFETCH: -nan cycles
L1D AVERAGE MSHR OCCUPANCY: 0.822922
L1D MSHR FULL: 0.0281612
L1D RQ	ACCESS:   47545807	FORWARD:          0	MERGED:    2412599	TO_CACHE:   43835854
L1D WQ	ACCESS:   29830088	FORWARD:    1297354	MERGED:    1283221	TO_CACHE:   28546867

L1D UNIQUE REGIONS ACCESSED: 0
L1D REGIONS CONFLICTS: 0
L1D Cross Page Prefetch Requests: 0
L1D Same Page Prefetch Requests: 0
L1D ROI Sum of L1D PQ occupancy: 0
L1D PREFETCHES PUSHED FROM L2C: 0
L1I SPEC fills:          0  NON-SPEC fills:          0
L1I Test counter :          0
L1I Leapfrog:          0
L1I MSHR merge:          2
L1I TOTAL     ACCESS:   41438926  HIT:   41438909  MISS:         17  HIT %:        100  MISS %: 4.10242e-05   MPKI: 8.5e-05
L1I LOAD      TOTAL       ACCESS:   41438926  HIT:   41438909  MISS:         17  HIT %:        100  MISS %: 4.10242e-05   MPKI: 8.5e-05
L1I LOAD      NON_SPEC    ACCESS:   41438926  HIT:   41438909  MISS:         17  HIT %:        100  MISS %: 4.10242e-05   MPKI: 8.5e-05
L1I PREFETCH  REQUESTED:          0  ISSUED:          0  USEFUL:          0  USELESS:          0
L1I USEFUL LOAD PREFETCHES:          0 PREFETCH ISSUED TO LOWER LEVEL:          0  ACCURACY: -nan
L1I TIMELY PREFETCHES:          0 LATE PREFETCHES: 0 DROPPED PREFETCHES: 0
L1I COMMIT LATE PREFETCHES: 0 NORMAL LATE: 0 MISSED OPPORTUNITY: 0 UNCOVERED: 17
L1I PREFETCHES SAME FILL-ORIGIN LEVEL: 0 DIFFERENT FILL-ORIGIN LEVEL: 0
L1I AVERAGE MISS LATENCY: 231.647 cycles
L1I AVERAGE MISS LATENCY LOAD: 231.647 cycles
L1I AVERAGE MISS LATENCY PREFETCH: -nan cycles
L1I AVERAGE MSHR OCCUPANCY: 1.93055e-07
L1I MSHR FULL: 0
L1I RQ	ACCESS:   64756726	FORWARD:          0	MERGED:   23317799	TO_CACHE:   41438927

BTB SPEC fills:          0  NON-SPEC fills:          0
BTB Test counter :          0
BTB Leapfrog:          0
BTB MSHR merge:          0
BTB TOTAL     ACCESS:   40442036  HIT:   40441679  MISS:        357  HIT %:    99.9991  MISS %: 0.000882745   MPKI: 0.001785
BTB BRANCH_DIRECT_JUMP	ACCESS:      22041  HIT:      21996  MISS:         45
BTB BRANCH_INDIRECT	ACCESS:          3  HIT:          2  MISS:          1
BTB BRANCH_CONDITIONAL	ACCESS:   40419252  HIT:   40419148  MISS:        104
BTB BRANCH_DIRECT_CALL	ACCESS:        361  HIT:        318  MISS:         43
BTB BRANCH_INDIRECT_CALL	ACCESS:          9  HIT:          6  MISS:          3
BTB BRANCH_RETURN	ACCESS:        370  HIT:        209  MISS:        161
BTB BRANCH_OTHER ACCESS:          0  HIT:          0  MISS:          0

L2C SPEC fills:          0  NON-SPEC fills:     592682
L2C Test counter :          0
L2C Leapfrog:          0
L2C MSHR merge:     244030
L2C TOTAL     ACCESS:   16271563  HIT:    7954631  MISS:    8316932  HIT %:    48.8867  MISS %:    51.1133   MPKI: 41.5847
L2C LOAD      TOTAL       ACCESS:    5983980  HIT:    3461356  MISS:    2522624  HIT %:    57.8437  MISS %:    42.1563   MPKI: 12.6131
L2C LOAD      NON_SPEC    ACCESS:    2170927  HIT:    1578228  MISS:     592699  HIT %:    72.6983  MISS %:    27.3017   MPKI: 2.96349
L2C LOAD      SPEC        ACCESS:    3813053  HIT:    1883128  MISS:    1929925  HIT %:    49.3864  MISS %:    50.6136   MPKI: 9.64963
L2C RFO       NON_SPEC    ACCESS:     276996  HIT:       7940  MISS:     269056  HIT %:    2.86647  MISS %:    97.1335   MPKI: 1.34528
L2C PREFETCH  NON_SPEC    ACCESS:    4415222  HIT:     878271  MISS:    3536951  HIT %:    19.8919  MISS %:    80.1081   MPKI: 17.6848
L2C WRITEBACK NON_SPEC    ACCESS:     579712  HIT:     579683  MISS:         29  HIT %:     99.995  MISS %: 0.00500248   MPKI: 0.000145
L2C CLEAN_EVICTION NON_SPEC    ACCESS:    4236803  HIT:    2310232  MISS:    1926571  HIT %:    54.5277  MISS %:    45.4723   MPKI: 9.63285
L2C COMMIT LOAD NON_SPEC    ACCESS:      46256  HIT:      18559  MISS:      27697  HIT %:    40.1224  MISS %:    59.8776   MPKI: 0.138485
L2C LOAD TRANSLATION NON_SPEC    ACCESS:     732594  HIT:     698590  MISS:      34004  HIT %:    95.3584  MISS %:    4.64159   MPKI: 0.17002
L2C PREFETCH  REQUESTED:    5352419  ISSUED:    5352307  USEFUL:    2243021  USELESS:    1293158
L2C USEFUL LOAD PREFETCHES:    2243021 PREFETCH ISSUED TO LOWER LEVEL:    4379777  ACCURACY: 51.2131
L2C TIMELY PREFETCHES:    2243021 LATE PREFETCHES: 244032 DROPPED PREFETCHES: 0
L2C COMMIT LATE PREFETCHES: 0 NORMAL LATE: 244032 MISSED OPPORTUNITY: 0 UNCOVERED: 2278592
L2C PREFETCHES SAME FILL-ORIGIN LEVEL: 3780983 DIFFERENT FILL-ORIGIN LEVEL: 598794
L2C AVERAGE MISS LATENCY: 129.033 cycles
L2C AVERAGE MISS LATENCY LOAD: 126.293 cycles
L2C AVERAGE MISS LATENCY PREFETCH: 192.873 cycles
L2C AVERAGE MSHR OCCUPANCY: 1.88874
L2C MSHR FULL: 2.34376e-05
L2C RQ	ACCESS:    7039863	FORWARD:          0	MERGED:          0	TO_CACHE:    7039826
L2C WQ	ACCESS:    4816516	FORWARD:         38	MERGED:          0	TO_CACHE:    4816516
L2C PQ	ACCESS:    5352307	FORWARD:          0	MERGED:      11798	TO_CACHE:    5340508

L2C Instructions Evicting Data 17
L2C Translations Evicting Data 33265
L2C Data Evicting Data 4400313
L2C Instructions Evicting Instructions 0
L2C Translations Evicting Instructions 1
L2C Data Evicting Instructions 13
L2C Instructions Evicting Translations 0
L2C Translations Evicting Translations 738
L2C Data Evicting Translations 26060
L2C Dense regions hint from L2: 0
PSCL5 SPEC fills:          0  NON-SPEC fills:          0
PSCL5 Test counter :          0
PSCL5 Leapfrog:          0
PSCL5 MSHR merge:          0
PSCL5 TOTAL     ACCESS:          0  HIT:          0  MISS:          0  HIT %:       -nan  MISS %:       -nan   MPKI: 0
PSCL5 PREFETCH  REQUESTED:          0  ISSUED:          0  USEFUL:          0  USELESS:          0
PSCL5 USEFUL LOAD PREFETCHES:          0 PREFETCH ISSUED TO LOWER LEVEL:          0  ACCURACY: -nan
PSCL5 TIMELY PREFETCHES:          0 LATE PREFETCHES: 0 DROPPED PREFETCHES: 0
PSCL5 COMMIT LATE PREFETCHES: 0 NORMAL LATE: 0 MISSED OPPORTUNITY: 0 UNCOVERED: 0
PSCL5 PREFETCHES SAME FILL-ORIGIN LEVEL: 0 DIFFERENT FILL-ORIGIN LEVEL: 0

PSCL4 SPEC fills:          0  NON-SPEC fills:          0
PSCL4 Test counter :          0
PSCL4 Leapfrog:          0
PSCL4 MSHR merge:          0
PSCL4 TOTAL     ACCESS:          0  HIT:          0  MISS:          0  HIT %:       -nan  MISS %:       -nan   MPKI: 0
PSCL4 PREFETCH  REQUESTED:          0  ISSUED:          0  USEFUL:          0  USELESS:          0
PSCL4 USEFUL LOAD PREFETCHES:          0 PREFETCH ISSUED TO LOWER LEVEL:          0  ACCURACY: -nan
PSCL4 TIMELY PREFETCHES:          0 LATE PREFETCHES: 0 DROPPED PREFETCHES: 0
PSCL4 COMMIT LATE PREFETCHES: 0 NORMAL LATE: 0 MISSED OPPORTUNITY: 0 UNCOVERED: 0
PSCL4 PREFETCHES SAME FILL-ORIGIN LEVEL: 0 DIFFERENT FILL-ORIGIN LEVEL: 0

PSCL3 SPEC fills:          0  NON-SPEC fills:          0
PSCL3 Test counter :          0
PSCL3 Leapfrog:          0
PSCL3 MSHR merge:          0
PSCL3 TOTAL     ACCESS:          0  HIT:          0  MISS:          0  HIT %:       -nan  MISS %:       -nan   MPKI: 0
PSCL3 PREFETCH  REQUESTED:          0  ISSUED:          0  USEFUL:          0  USELESS:          0
PSCL3 USEFUL LOAD PREFETCHES:          0 PREFETCH ISSUED TO LOWER LEVEL:          0  ACCURACY: -nan
PSCL3 TIMELY PREFETCHES:          0 LATE PREFETCHES: 0 DROPPED PREFETCHES: 0
PSCL3 COMMIT LATE PREFETCHES: 0 NORMAL LATE: 0 MISSED OPPORTUNITY: 0 UNCOVERED: 0
PSCL3 PREFETCHES SAME FILL-ORIGIN LEVEL: 0 DIFFERENT FILL-ORIGIN LEVEL: 0

PSCL2 SPEC fills:          0  NON-SPEC fills:          0
PSCL2 Test counter :          0
PSCL2 Leapfrog:          0
PSCL2 MSHR merge:          0
PSCL2 TOTAL     ACCESS:          0  HIT:          0  MISS:          0  HIT %:       -nan  MISS %:       -nan   MPKI: 0
PSCL2 PREFETCH  REQUESTED:          0  ISSUED:          0  USEFUL:          0  USELESS:          0
PSCL2 USEFUL LOAD PREFETCHES:          0 PREFETCH ISSUED TO LOWER LEVEL:          0  ACCURACY: -nan
PSCL2 TIMELY PREFETCHES:          0 LATE PREFETCHES: 0 DROPPED PREFETCHES: 0
PSCL2 COMMIT LATE PREFETCHES: 0 NORMAL LATE: 0 MISSED OPPORTUNITY: 0 UNCOVERED: 0
PSCL2 PREFETCHES SAME FILL-ORIGIN LEVEL: 0 DIFFERENT FILL-ORIGIN LEVEL: 0

LLC SPEC fills:          0  NON-SPEC fills:     310411
LLC Test counter :          0
LLC Leapfrog:          0
LLC MSHR merge:      17218
LLC TOTAL     ACCESS:   11244712  HIT:    4780561  MISS:    6464151  HIT %:    42.5139  MISS %:    57.4861   MPKI: 32.3208
LLC LOAD      TOTAL       ACCESS:    2278577  HIT:    1000530  MISS:    1278047  HIT %:    43.9103  MISS %:    56.0897   MPKI: 6.39023
LLC LOAD      NON_SPEC    ACCESS:     559543  HIT:     249115  MISS:     310428  HIT %:    44.5212  MISS %:    55.4788   MPKI: 1.55214
LLC LOAD      SPEC        ACCESS:    1719034  HIT:     751415  MISS:     967619  HIT %:    43.7115  MISS %:    56.2885   MPKI: 4.8381
LLC RFO       NON_SPEC    ACCESS:     269055  HIT:      12953  MISS:     256102  HIT %:    4.81426  MISS %:    95.1857   MPKI: 1.28051
LLC PREFETCH  NON_SPEC    ACCESS:    4344240  HIT:     567031  MISS:    3777209  HIT %:    13.0525  MISS %:    86.9475   MPKI: 18.886
LLC WRITEBACK NON_SPEC    ACCESS:     471338  HIT:     468806  MISS:       2532  HIT %:    99.4628  MISS %:   0.537194   MPKI: 0.01266
LLC CLEAN_EVICTION NON_SPEC    ACCESS:    3819805  HIT:    2713199  MISS:    1106606  HIT %:    71.0298  MISS %:    28.9702   MPKI: 5.53303
LLC COMMIT LOAD NON_SPEC    ACCESS:      27693  HIT:      16942  MISS:      10751  HIT %:    61.1779  MISS %:    38.8221   MPKI: 0.053755
LLC LOAD TRANSLATION NON_SPEC    ACCESS:      34004  HIT:       1100  MISS:      32904  HIT %:    3.23491  MISS %:    96.7651   MPKI: 0.16452
LLC PREFETCH  REQUESTED:          0  ISSUED:          0  USEFUL:     184652  USELESS:    3589568
LLC USEFUL LOAD PREFETCHES:     184652 PREFETCH ISSUED TO LOWER LEVEL:    3794426  ACCURACY: 4.8664
LLC TIMELY PREFETCHES:     184652 LATE PREFETCHES: 17218 DROPPED PREFETCHES: 0
LLC COMMIT LATE PREFETCHES: 0 NORMAL LATE: 17218 MISSED OPPORTUNITY: 0 UNCOVERED: 1260829
LLC PREFETCHES SAME FILL-ORIGIN LEVEL: 344384 DIFFERENT FILL-ORIGIN LEVEL: 0
LLC AVERAGE MISS LATENCY: 151.135 cycles
LLC AVERAGE MISS LATENCY LOAD: 176.124 cycles
LLC AVERAGE MISS LATENCY PREFETCH: 182.521 cycles
LLC AVERAGE MSHR OCCUPANCY: 2.21878
LLC MSHR FULL: 0
LLC RQ	ACCESS:    2609349	FORWARD:          0	MERGED:          0	TO_CACHE:    2609329
LLC WQ	ACCESS:    4291142	FORWARD:         25	MERGED:          0	TO_CACHE:    4291142
LLC PQ	ACCESS:    4379777	FORWARD:          0	MERGED:      11247	TO_CACHE:    4368525

LLC Dense regions hint to LLC: 0

RAW hits: 235053
Loads Generated: 47703547
Loads sent to L1D: 47468495
Stores Generated: 7636817
Stores sent to L1D: 7636820
Major fault: 0 Minor fault: 29015
Allocated PAGES: 29015
Total Load insts: 60227235
Total Non-spec loads: 11121029
Percentage of speculative loads: 81.5349

LeapFrogging counter: 542507
Commit hits: 22242135 miss: 14370246
Commit hit %: 60.7503 miss %: 39.2497
Commits not translated: 0
Loads retired: 5983999
Stores retired: 7636820
Cache fills: 5983999
L1D response latency: 65.5348 cycles
Load retirement latency: 117.451 cycles
OOO test counter: 0
Discarded buffer inserts: 22242135 hits: 43812 hit %: 0.196977
Filter prediction accuracy: -nan
------------------
Depth Distribution
------------------
depth 0: 2705906
depth 1: 1954996
depth 2: 577612
depth 3: 402503
depth 4: 558168
depth 5: 169100
depth 6: 88064
depth 7: 20603
depth 8: 19078
depth 9: 103739
depth 10: 54034
depth 11: 329380
depth 12: 261179
depth 13: 40760
depth 14: 411461
depth 15: 64274
depth 16: 48522
depth 17: 22368
depth 18: 13772
depth 19: 2146
depth 20: 279
depth 21: 85
depth 22: 16
depth 23: 0
depth 24: 14
depth 25: 5
depth 26: 0
depth 27: 3
depth 28: 0
depth 29: 1
Total: 7848068
------------------
ST read accesses: 5287034
ST write accesses: 696929
PT read accesses: 149756435
PT write accesses: 7491470
FILTER read accesses: 39502470
FILTER write accesses: 23187272
GHR read accesses: 16776148
GHR write accesses: 2000646
PERC read accesses: 995060853
PERC write accesses: 51876399
GHR counter read accesses: 11967926
GHR counter write accesses: 14088082
GHR ip read accesses: 40258953
GHR ip write accesses: 23935852
ST tag read accesses: 2663717729
ST tag write accesses: 208242101

DRAM Statistics
 CHANNEL 0
 RQ ROW_BUFFER_HIT:    1099311  ROW_BUFFER_MISS:    4255081
 DBUS_CONGESTED:       6674
 WQ ROW_BUFFER_HIT:    1121678  ROW_BUFFER_MISS:    2519519  FULL:       8513

 AVG_CONGESTED_CYCLE: 4
 All warmup complete: 2
Channel 0 Bank busy for read cycles: 0
Channel 0 Bank busy for write cycles: 0
Channel 0
Rank 0
0banks busy for read cycles: 91190752
0banks busy for write cycles: 281160
1banks busy for read cycles: 153554485
1banks busy for write cycles: 35280031
2banks busy for read cycles: 81984700
2banks busy for write cycles: 27443736
3banks busy for read cycles: 42134587
3banks busy for write cycles: 22442166
4banks busy for read cycles: 21080469
4banks busy for write cycles: 17761161
5banks busy for read cycles: 10783155
5banks busy for write cycles: 13701202
6banks busy for read cycles: 6899475
6banks busy for write cycles: 11495053
7banks busy for read cycles: 4844382
7banks busy for write cycles: 15259126
8banks busy for read cycles: 5067505
8banks busy for write cycles: 42162087

CPU 0 Branch Prediction Accuracy: 88.7511% MPKI: 23.6813 Average ROB Occupancy at Mispredict: 10.041
Branch types
NOT_BRANCH: 157895415 78.9477%
BRANCH_DIRECT_JUMP: 22041 0.0110205%
BRANCH_INDIRECT: 3 1.5e-06%
BRANCH_CONDITIONAL: 42081441 21.0407%
BRANCH_DIRECT_CALL: 361 0.0001805%
BRANCH_INDIRECT_CALL: 9 4.5e-06%
BRANCH_RETURN: 370 0.000185%
BRANCH_OTHER: 0 0%

DRAM PAGES: 1048576
Allocated PAGES: 29015
