Initialize SIGNATURE TABLE
ST_SET: 1
ST_WAY: 256
ST_TAG_BIT: 16
ST_TAG_MASK: ffff

Initialize PATTERN TABLE
PT_SET: 512
PT_WAY: 4
SIG_DELTA_BIT: 7
C_SIG_BIT: 4
C_DELTA_BIT: 4

Initialize PREFETCH FILTER
FILTER_SET: 1024

Initialize PERCEPTRON
PERC_ENTRIES: 4096
PERC_FEATURES: 9
Initialize SIGNATURE TABLE
ST_SET: 1
ST_WAY: 256
ST_TAG_BIT: 16
ST_TAG_MASK: ffff

Initialize PATTERN TABLE
PT_SET: 512
PT_WAY: 4
SIG_DELTA_BIT: 7
C_SIG_BIT: 4
C_DELTA_BIT: 4

Initialize PREFETCH FILTER
FILTER_SET: 1024

Initialize PERCEPTRON
PERC_ENTRIES: 4096
PERC_FEATURES: 9

*** ChampSim Multicore Out-of-Order Simulator ***

Warmup Instructions: 50000000
Simulation Instructions: 200000000
Number of CPUs: 1
LLC sets: 2048
LLC ways: 16
L0D sets: 16
L0D ways: 2
ROB size: 352
LQ size: 128
SQ size: 72
Secure Berti: OFF
Berti: OFF
Berti Fill: OFF
On commit prefetching: OFF
Hit-based filter: OFF
Time-guarding: ON
Free-slotting: ON
Leap-frogging: ON
Train prefetcher on L0D bypass: OFF
No translation penalty for prefetchers: OFF
Prefetch to L0D only: OFF
Prefetch to L1D only: OFF
Clean evictions: ON
Commit loads: ON
Commit write: ON
Fill commit loads to L2C, LLC: ON
DRAM IO FREQUENCY: 6400
ROB SIZE: 352
Off-chip DRAM Size: 4096 MB Channels: 1 Width: 64-bit Data Rate: 6400 MT/s
CPU 0 runs /home/sumon/secure_berti/GhostMinion/../../traces/gap/cc-5.trace.gz
.gz
BTB has LRU replacement policy
ITLB has LRU replacement policy
DTLB has LRU replacement policy
STLB has LRU replacement policy
L1I has LRU replacement policy
L0D has LRU replacement policy
L1D has LRU replacement policy
PERC_ENTRIES: 4096
L2C has LRU replacement policy
LLC has LRU replacement policy
Heartbeat CPU 0 instructions: 10000001 cycles: 3232010 heartbeat IPC: 3.09405 cumulative IPC: 3.09405 (Simulation time: 0 hr 1 min 49 sec) 
Heartbeat CPU 0 instructions: 20000001 cycles: 6455635 heartbeat IPC: 3.1021 cumulative IPC: 3.09807 (Simulation time: 0 hr 3 min 52 sec) 
Heartbeat CPU 0 instructions: 30000003 cycles: 9685084 heartbeat IPC: 3.0965 cumulative IPC: 3.09755 (Simulation time: 0 hr 5 min 56 sec) 
Heartbeat CPU 0 instructions: 40000001 cycles: 12912765 heartbeat IPC: 3.0982 cumulative IPC: 3.09771 (Simulation time: 0 hr 8 min 0 sec) 
Heartbeat CPU 0 instructions: 50000001 cycles: 16137645 heartbeat IPC: 3.10089 cumulative IPC: 3.09835 (Simulation time: 0 hr 10 min 3 sec) 

Warmup complete CPU 0 instructions: 50000001 cycles: 16137645 (Simulation time: 0 hr 10 min 3 sec) 

Heartbeat CPU 0 instructions: 60000001 cycles: 51546050 heartbeat IPC: 0.282419 cumulative IPC: 0.282419 (Simulation time: 0 hr 13 min 11 sec) 
Heartbeat CPU 0 instructions: 70000002 cycles: 86365003 heartbeat IPC: 0.2872 cumulative IPC: 0.284789 (Simulation time: 0 hr 16 min 23 sec) 
Heartbeat CPU 0 instructions: 80000000 cycles: 121241368 heartbeat IPC: 0.286727 cumulative IPC: 0.285432 (Simulation time: 0 hr 19 min 35 sec) 
Heartbeat CPU 0 instructions: 90000000 cycles: 156156890 heartbeat IPC: 0.286406 cumulative IPC: 0.285675 (Simulation time: 0 hr 22 min 47 sec) 
Heartbeat CPU 0 instructions: 100000000 cycles: 191036346 heartbeat IPC: 0.286702 cumulative IPC: 0.28588 (Simulation time: 0 hr 26 min 2 sec) 
Heartbeat CPU 0 instructions: 110000000 cycles: 225149338 heartbeat IPC: 0.293143 cumulative IPC: 0.287065 (Simulation time: 0 hr 29 min 15 sec) 
Heartbeat CPU 0 instructions: 120000000 cycles: 259668326 heartbeat IPC: 0.289696 cumulative IPC: 0.287438 (Simulation time: 0 hr 32 min 24 sec) 
Heartbeat CPU 0 instructions: 130000003 cycles: 292479502 heartbeat IPC: 0.304774 cumulative IPC: 0.289497 (Simulation time: 0 hr 34 min 27 sec) 
Heartbeat CPU 0 instructions: 140000001 cycles: 326400236 heartbeat IPC: 0.294805 cumulative IPC: 0.290077 (Simulation time: 0 hr 36 min 27 sec) 
Heartbeat CPU 0 instructions: 150000000 cycles: 359590243 heartbeat IPC: 0.301295 cumulative IPC: 0.291161 (Simulation time: 0 hr 38 min 26 sec) 
Heartbeat CPU 0 instructions: 160000000 cycles: 393304389 heartbeat IPC: 0.296611 cumulative IPC: 0.291648 (Simulation time: 0 hr 40 min 24 sec) 
Heartbeat CPU 0 instructions: 170000000 cycles: 427617308 heartbeat IPC: 0.291435 cumulative IPC: 0.29163 (Simulation time: 0 hr 42 min 23 sec) 
Heartbeat CPU 0 instructions: 180000001 cycles: 461615035 heartbeat IPC: 0.294137 cumulative IPC: 0.291822 (Simulation time: 0 hr 44 min 20 sec) 
Heartbeat CPU 0 instructions: 190000001 cycles: 495902648 heartbeat IPC: 0.291651 cumulative IPC: 0.29181 (Simulation time: 0 hr 46 min 17 sec) 
Heartbeat CPU 0 instructions: 200000001 cycles: 529157093 heartbeat IPC: 0.300712 cumulative IPC: 0.292387 (Simulation time: 0 hr 48 min 13 sec) 
Heartbeat CPU 0 instructions: 210000001 cycles: 563377196 heartbeat IPC: 0.292226 cumulative IPC: 0.292377 (Simulation time: 0 hr 50 min 10 sec) 
Heartbeat CPU 0 instructions: 220000000 cycles: 596610711 heartbeat IPC: 0.300901 cumulative IPC: 0.292865 (Simulation time: 0 hr 52 min 5 sec) 
Heartbeat CPU 0 instructions: 230000001 cycles: 629858211 heartbeat IPC: 0.300775 cumulative IPC: 0.293293 (Simulation time: 0 hr 54 min 0 sec) 
Heartbeat CPU 0 instructions: 240000003 cycles: 662749866 heartbeat IPC: 0.304029 cumulative IPC: 0.293839 (Simulation time: 0 hr 55 min 55 sec) 
Heartbeat CPU 0 instructions: 250000002 cycles: 695117426 heartbeat IPC: 0.308951 cumulative IPC: 0.29456 (Simulation time: 0 hr 57 min 50 sec) 
Finished CPU 0 instructions: 200000001 cycles: 678979781 cumulative IPC: 0.29456 (Simulation time: 0 hr 57 min 50 sec) 
 Instruction ID: 250000027

ChampSim completed all CPUs

Region of Interest Statistics

CPU 0 cumulative IPC: 0.29456 instructions: 200000001 cycles: 678979781
ITLB SPEC fills:          0  NON-SPEC fills:          0
ITLB Test counter :          0
ITLB Leapfrog:          0
ITLB MSHR merge:          0
ITLB TOTAL     ACCESS:   29859396  HIT:   29859396  MISS:          0  HIT %:        100  MISS %:          0   MPKI: 0
ITLB LOAD TRANSLATION NON_SPEC    ACCESS:   29859396  HIT:   29859396  MISS:          0  HIT %:        100  MISS %:          0   MPKI: 0
ITLB PREFETCH  REQUESTED:          0  ISSUED:          0  USEFUL:          0  USELESS:          0
ITLB USEFUL LOAD PREFETCHES:          0 PREFETCH ISSUED TO LOWER LEVEL:          0  ACCURACY: -nan
ITLB TIMELY PREFETCHES:          0 LATE PREFETCHES: 0 DROPPED PREFETCHES: 0
ITLB COMMIT LATE PREFETCHES: 0 NORMAL LATE: 0 MISSED OPPORTUNITY: 0 UNCOVERED: 0
ITLB PREFETCHES SAME FILL-ORIGIN LEVEL: 0 DIFFERENT FILL-ORIGIN LEVEL: 0
ITLB AVERAGE MISS LATENCY: -nan cycles
ITLB AVERAGE MISS LATENCY LOAD: -nan cycles
ITLB AVERAGE MISS LATENCY PREFETCH: -nan cycles
ITLB AVERAGE MSHR OCCUPANCY: 0
ITLB MSHR FULL: 0
ITLB RQ	ACCESS:   30473562	FORWARD:          0	MERGED:     614166	TO_CACHE:   29859396

DTLB SPEC fills:          0  NON-SPEC fills:          0
DTLB Test counter :          0
DTLB Leapfrog:          0
DTLB MSHR merge:          0
DTLB TOTAL     ACCESS:   45988777  HIT:   36509794  MISS:    9478983  HIT %:    79.3885  MISS %:    20.6115   MPKI: 47.3949
DTLB LOAD TRANSLATION NON_SPEC    ACCESS:   45988777  HIT:   36509794  MISS:    9478983  HIT %:    79.3885  MISS %:    20.6115   MPKI: 47.3949
DTLB PREFETCH  REQUESTED:          0  ISSUED:          0  USEFUL:          0  USELESS:          0
DTLB USEFUL LOAD PREFETCHES:          0 PREFETCH ISSUED TO LOWER LEVEL:          0  ACCURACY: -nan
DTLB TIMELY PREFETCHES:          0 LATE PREFETCHES: 0 DROPPED PREFETCHES: 0
DTLB COMMIT LATE PREFETCHES: 0 NORMAL LATE: 0 MISSED OPPORTUNITY: 0 UNCOVERED: 0
DTLB PREFETCHES SAME FILL-ORIGIN LEVEL: 0 DIFFERENT FILL-ORIGIN LEVEL: 0
DTLB AVERAGE MISS LATENCY: 9.56622 cycles
DTLB AVERAGE MISS LATENCY LOAD: -nan cycles
DTLB AVERAGE MISS LATENCY PREFETCH: -nan cycles
DTLB AVERAGE MSHR OCCUPANCY: 0.380894
DTLB MSHR FULL: 0.00248564
DTLB RQ	ACCESS:   48344590	FORWARD:          0	MERGED:    2032458	TO_CACHE:   46312132

STLB SPEC fills:          0  NON-SPEC fills:          0
STLB Test counter :          0
STLB Leapfrog:          0
STLB MSHR merge:          0
STLB TOTAL     ACCESS:    9478983  HIT:    9464714  MISS:      14269  HIT %:    99.8495  MISS %:   0.150533   MPKI: 0.071345
STLB LOAD TRANSLATION NON_SPEC    ACCESS:    9478983  HIT:    9464714  MISS:      14269  HIT %:    99.8495  MISS %:   0.150533   MPKI: 0.071345
STLB PREFETCH  REQUESTED:          0  ISSUED:          0  USEFUL:          0  USELESS:          0
STLB USEFUL LOAD PREFETCHES:          0 PREFETCH ISSUED TO LOWER LEVEL:          0  ACCURACY: -nan
STLB TIMELY PREFETCHES:          0 LATE PREFETCHES: 0 DROPPED PREFETCHES: 0
STLB COMMIT LATE PREFETCHES: 0 NORMAL LATE: 0 MISSED OPPORTUNITY: 0 UNCOVERED: 0
STLB PREFETCHES SAME FILL-ORIGIN LEVEL: 0 DIFFERENT FILL-ORIGIN LEVEL: 0
STLB AVERAGE MISS LATENCY: 189.092 cycles
STLB AVERAGE MISS LATENCY LOAD: -nan cycles
STLB AVERAGE MISS LATENCY PREFETCH: -nan cycles
STLB AVERAGE MSHR OCCUPANCY: 0.00137631
STLB MSHR FULL: 0
STLB RQ	ACCESS:    9478983	FORWARD:          0	MERGED:          0	TO_CACHE:    9478983

STLB Hit, L1D data hit: 0
STLB Hit, L2C data hit: 0
STLB Hit, LLC data hit: 0
STLB Hit, LLC data miss: 0
STLB STLB hints to L2: 0
L0D SPEC fills:   24759328  NON-SPEC fills:          0
L0D TimeGuard Request with older TS:     729947 Restricted eviction:     316112 read:     629285
L0D Test counter :          0
L0D Leapfrog:          0
L0D MSHR merge:    1695688
L0D TOTAL     ACCESS:   46400628  HIT:   12713916  MISS:   33686712  HIT %:    27.4003  MISS %:    72.5997   MPKI: 168.434
L0D LOAD      TOTAL       ACCESS:   46400628  HIT:   12713916  MISS:   33686712  HIT %:    27.4003  MISS %:    72.5997   MPKI: 168.434
L0D LOAD      NON_SPEC    ACCESS:    9527147  HIT:     915875  MISS:    8611272  HIT %:    9.61332  MISS %:    90.3867   MPKI: 43.0564
L0D LOAD      SPEC        ACCESS:   36873481  HIT:   11798041  MISS:   25075440  HIT %:     31.996  MISS %:     68.004   MPKI: 125.377
L0D PREFETCH  REQUESTED:          0  ISSUED:          0  USEFUL:          0  USELESS:          0
L0D USEFUL LOAD PREFETCHES:          0 PREFETCH ISSUED TO LOWER LEVEL:          0  ACCURACY: -nan
L0D TIMELY PREFETCHES:          0 LATE PREFETCHES: 0 DROPPED PREFETCHES: 0
L0D COMMIT LATE PREFETCHES: 0 NORMAL LATE: 0 MISSED OPPORTUNITY: 0 UNCOVERED: 33686712
L0D PREFETCHES SAME FILL-ORIGIN LEVEL: 0 DIFFERENT FILL-ORIGIN LEVEL: 0
L0D AVERAGE MISS LATENCY: 33.4565 cycles
L0D AVERAGE MISS LATENCY LOAD: 33.4565 cycles
L0D AVERAGE MISS LATENCY PREFETCH: -nan cycles
L0D AVERAGE MSHR OCCUPANCY: 2.21338
L0D MSHR FULL: 0.0414238
L0D RQ	ACCESS:   54337453	FORWARD:          0	MERGED:    6241145	TO_CACHE:   48096308
L0D WQ	ACCESS:     248282	FORWARD:          0	MERGED:          0	TO_CACHE:     248282

L1D SPEC fills:          0  NON-SPEC fills:    2771208
L1D Test counter :          0
L1D Leapfrog:          0
L1D MSHR merge:       8707
L1D TOTAL     ACCESS:   70725437  HIT:   44140078  MISS:   26585359  HIT %:    62.4105  MISS %:    37.5895   MPKI: 132.927
L1D LOAD      TOTAL       ACCESS:   33678006  HIT:   18958270  MISS:   14719736  HIT %:    56.2927  MISS %:    43.7073   MPKI: 73.5987
L1D LOAD      NON_SPEC    ACCESS:    8610717  HIT:    5839509  MISS:    2771208  HIT %:    67.8168  MISS %:    32.1832   MPKI: 13.856
L1D LOAD      SPEC        ACCESS:   25067289  HIT:   13118761  MISS:   11948528  HIT %:    52.3342  MISS %:    47.6658   MPKI: 59.7426
L1D RFO       NON_SPEC    ACCESS:     246721  HIT:     246721  MISS:          0  HIT %:        100  MISS %:          0   MPKI: 0
L1D COMMIT LOAD NON_SPEC    ACCESS:   12856011  HIT:   12549039  MISS:     306972  HIT %:    97.6122  MISS %:    2.38777   MPKI: 1.53486
L1D COMMIT WRITE NON_SPEC    ACCESS:   23944699  HIT:   12386048  MISS:   11558651  HIT %:    51.7277  MISS %:    48.2723   MPKI: 57.7933
L1D PREFETCH  REQUESTED:          0  ISSUED:          0  USEFUL:          0  USELESS:          0
L1D USEFUL LOAD PREFETCHES:          0 PREFETCH ISSUED TO LOWER LEVEL:          0  ACCURACY: -nan
L1D TIMELY PREFETCHES:          0 LATE PREFETCHES: 0 DROPPED PREFETCHES: 0
L1D COMMIT LATE PREFETCHES: 0 NORMAL LATE: 0 MISSED OPPORTUNITY: 0 UNCOVERED: 14719736
L1D PREFETCHES SAME FILL-ORIGIN LEVEL: 0 DIFFERENT FILL-ORIGIN LEVEL: 0
L1D AVERAGE MISS LATENCY: 36.3256 cycles
L1D AVERAGE MISS LATENCY LOAD: 64.8075 cycles
L1D AVERAGE MISS LATENCY PREFETCH: -nan cycles
L1D AVERAGE MSHR OCCUPANCY: 1.36596
L1D MSHR FULL: 0
L1D RQ	ACCESS:   54202589	FORWARD:          0	MERGED:    5685375	TO_CACHE:   46566310
L1D WQ	ACCESS:   24416437	FORWARD:    1950904	MERGED:     223474	TO_CACHE:   24192963

L1D UNIQUE REGIONS ACCESSED: 0
L1D REGIONS CONFLICTS: 0
L1D Cross Page Prefetch Requests: 0
L1D Same Page Prefetch Requests: 0
L1D ROI Sum of L1D PQ occupancy: 0
L1D PREFETCHES PUSHED FROM L2C: 0
L1I SPEC fills:          0  NON-SPEC fills:          0
L1I Test counter :          0
L1I Leapfrog:          0
L1I MSHR merge:          0
L1I TOTAL     ACCESS:   30473562  HIT:   30473562  MISS:          0  HIT %:        100  MISS %:          0   MPKI: 0
L1I LOAD      TOTAL       ACCESS:   30473562  HIT:   30473562  MISS:          0  HIT %:        100  MISS %:          0   MPKI: 0
L1I LOAD      NON_SPEC    ACCESS:   30473562  HIT:   30473562  MISS:          0  HIT %:        100  MISS %:          0   MPKI: 0
L1I PREFETCH  REQUESTED:          0  ISSUED:          0  USEFUL:          0  USELESS:          0
L1I USEFUL LOAD PREFETCHES:          0 PREFETCH ISSUED TO LOWER LEVEL:          0  ACCURACY: -nan
L1I TIMELY PREFETCHES:          0 LATE PREFETCHES: 0 DROPPED PREFETCHES: 0
L1I COMMIT LATE PREFETCHES: 0 NORMAL LATE: 0 MISSED OPPORTUNITY: 0 UNCOVERED: 0
L1I PREFETCHES SAME FILL-ORIGIN LEVEL: 0 DIFFERENT FILL-ORIGIN LEVEL: 0
L1I AVERAGE MISS LATENCY: -nan cycles
L1I AVERAGE MISS LATENCY LOAD: -nan cycles
L1I AVERAGE MISS LATENCY PREFETCH: -nan cycles
L1I AVERAGE MSHR OCCUPANCY: 0
L1I MSHR FULL: 0
L1I RQ	ACCESS:   55373494	FORWARD:          0	MERGED:   24899932	TO_CACHE:   30473562

BTB SPEC fills:          0  NON-SPEC fills:          0
BTB Test counter :          0
BTB Leapfrog:          0
BTB MSHR merge:          0
BTB TOTAL     ACCESS:   40039424  HIT:   40039419  MISS:          5  HIT %:        100  MISS %: 1.24877e-05   MPKI: 2.5e-05
BTB BRANCH_DIRECT_JUMP	ACCESS:          0  HIT:          0  MISS:          0
BTB BRANCH_INDIRECT	ACCESS:          0  HIT:          0  MISS:          0
BTB BRANCH_CONDITIONAL	ACCESS:   40039424  HIT:   40039419  MISS:          5
BTB BRANCH_DIRECT_CALL	ACCESS:          0  HIT:          0  MISS:          0
BTB BRANCH_INDIRECT_CALL	ACCESS:          0  HIT:          0  MISS:          0
BTB BRANCH_RETURN	ACCESS:          0  HIT:          0  MISS:          0
BTB BRANCH_OTHER ACCESS:          0  HIT:          0  MISS:          0

L2C SPEC fills:          0  NON-SPEC fills:    1651779
L2C Test counter :          0
L2C Leapfrog:          0
L2C MSHR merge:      63743
L2C TOTAL     ACCESS:   29007410  HIT:   10603015  MISS:   18404395  HIT %:    36.5528  MISS %:    63.4472   MPKI: 92.022
L2C LOAD      TOTAL       ACCESS:   14719462  HIT:    5608581  MISS:    9110881  HIT %:    38.1032  MISS %:    61.8968   MPKI: 45.5544
L2C LOAD      NON_SPEC    ACCESS:    2771160  HIT:    1119381  MISS:    1651779  HIT %:     40.394  MISS %:     59.606   MPKI: 8.25889
L2C LOAD      SPEC        ACCESS:   11948302  HIT:    4489200  MISS:    7459102  HIT %:    37.5719  MISS %:    62.4281   MPKI: 37.2955
L2C PREFETCH  NON_SPEC    ACCESS:    2012607  HIT:     359069  MISS:    1653538  HIT %:     17.841  MISS %:     82.159   MPKI: 8.26769
L2C WRITEBACK NON_SPEC    ACCESS:      29838  HIT:      29838  MISS:          0  HIT %:        100  MISS %:          0   MPKI: 0
L2C CLEAN_EVICTION NON_SPEC    ACCESS:   11867424  HIT:    4387712  MISS:    7479712  HIT %:    36.9727  MISS %:    63.0273   MPKI: 37.3986
L2C COMMIT LOAD NON_SPEC    ACCESS:     306761  HIT:     151412  MISS:     155349  HIT %:    49.3583  MISS %:    50.6417   MPKI: 0.776745
L2C LOAD TRANSLATION NON_SPEC    ACCESS:      71318  HIT:      66403  MISS:       4915  HIT %:    93.1083  MISS %:    6.89167   MPKI: 0.024575
L2C PREFETCH  REQUESTED:    3141315  ISSUED:    3141277  USEFUL:     992484  USELESS:     660732
L2C USEFUL LOAD PREFETCHES:     992484 PREFETCH ISSUED TO LOWER LEVEL:    2693505  ACCURACY: 36.8473
L2C TIMELY PREFETCHES:     992484 LATE PREFETCHES: 63743 DROPPED PREFETCHES: 0
L2C COMMIT LATE PREFETCHES: 0 NORMAL LATE: 63743 MISSED OPPORTUNITY: 0 UNCOVERED: 9047138
L2C PREFETCHES SAME FILL-ORIGIN LEVEL: 1717281 DIFFERENT FILL-ORIGIN LEVEL: 976224
L2C AVERAGE MISS LATENCY: 60.3949 cycles
L2C AVERAGE MISS LATENCY LOAD: 85.5105 cycles
L2C AVERAGE MISS LATENCY PREFETCH: 196.432 cycles
L2C AVERAGE MSHR OCCUPANCY: 1.99555
L2C MSHR FULL: 0
L2C RQ	ACCESS:   15098024	FORWARD:          0	MERGED:          0	TO_CACHE:   15097540
L2C WQ	ACCESS:   11897288	FORWARD:        497	MERGED:         23	TO_CACHE:   11897265
L2C PQ	ACCESS:    3141277	FORWARD:          0	MERGED:       9449	TO_CACHE:    3131815

L2C Instructions Evicting Data 0
L2C Translations Evicting Data 4914
L2C Data Evicting Data 3459241
L2C Instructions Evicting Instructions 0
L2C Translations Evicting Instructions 0
L2C Data Evicting Instructions 0
L2C Instructions Evicting Translations 0
L2C Translations Evicting Translations 1
L2C Data Evicting Translations 1425
L2C Dense regions hint from L2: 0
PSCL5 SPEC fills:          0  NON-SPEC fills:          0
PSCL5 Test counter :          0
PSCL5 Leapfrog:          0
PSCL5 MSHR merge:          0
PSCL5 TOTAL     ACCESS:          0  HIT:          0  MISS:          0  HIT %:       -nan  MISS %:       -nan   MPKI: 0
PSCL5 PREFETCH  REQUESTED:          0  ISSUED:          0  USEFUL:          0  USELESS:          0
PSCL5 USEFUL LOAD PREFETCHES:          0 PREFETCH ISSUED TO LOWER LEVEL:          0  ACCURACY: -nan
PSCL5 TIMELY PREFETCHES:          0 LATE PREFETCHES: 0 DROPPED PREFETCHES: 0
PSCL5 COMMIT LATE PREFETCHES: 0 NORMAL LATE: 0 MISSED OPPORTUNITY: 0 UNCOVERED: 0
PSCL5 PREFETCHES SAME FILL-ORIGIN LEVEL: 0 DIFFERENT FILL-ORIGIN LEVEL: 0

PSCL4 SPEC fills:          0  NON-SPEC fills:          0
PSCL4 Test counter :          0
PSCL4 Leapfrog:          0
PSCL4 MSHR merge:          0
PSCL4 TOTAL     ACCESS:          0  HIT:          0  MISS:          0  HIT %:       -nan  MISS %:       -nan   MPKI: 0
PSCL4 PREFETCH  REQUESTED:          0  ISSUED:          0  USEFUL:          0  USELESS:          0
PSCL4 USEFUL LOAD PREFETCHES:          0 PREFETCH ISSUED TO LOWER LEVEL:          0  ACCURACY: -nan
PSCL4 TIMELY PREFETCHES:          0 LATE PREFETCHES: 0 DROPPED PREFETCHES: 0
PSCL4 COMMIT LATE PREFETCHES: 0 NORMAL LATE: 0 MISSED OPPORTUNITY: 0 UNCOVERED: 0
PSCL4 PREFETCHES SAME FILL-ORIGIN LEVEL: 0 DIFFERENT FILL-ORIGIN LEVEL: 0

PSCL3 SPEC fills:          0  NON-SPEC fills:          0
PSCL3 Test counter :          0
PSCL3 Leapfrog:          0
PSCL3 MSHR merge:          0
PSCL3 TOTAL     ACCESS:          0  HIT:          0  MISS:          0  HIT %:       -nan  MISS %:       -nan   MPKI: 0
PSCL3 PREFETCH  REQUESTED:          0  ISSUED:          0  USEFUL:          0  USELESS:          0
PSCL3 USEFUL LOAD PREFETCHES:          0 PREFETCH ISSUED TO LOWER LEVEL:          0  ACCURACY: -nan
PSCL3 TIMELY PREFETCHES:          0 LATE PREFETCHES: 0 DROPPED PREFETCHES: 0
PSCL3 COMMIT LATE PREFETCHES: 0 NORMAL LATE: 0 MISSED OPPORTUNITY: 0 UNCOVERED: 0
PSCL3 PREFETCHES SAME FILL-ORIGIN LEVEL: 0 DIFFERENT FILL-ORIGIN LEVEL: 0

PSCL2 SPEC fills:          0  NON-SPEC fills:          0
PSCL2 Test counter :          0
PSCL2 Leapfrog:          0
PSCL2 MSHR merge:          0
PSCL2 TOTAL     ACCESS:          0  HIT:          0  MISS:          0  HIT %:       -nan  MISS %:       -nan   MPKI: 0
PSCL2 PREFETCH  REQUESTED:          0  ISSUED:          0  USEFUL:          0  USELESS:          0
PSCL2 USEFUL LOAD PREFETCHES:          0 PREFETCH ISSUED TO LOWER LEVEL:          0  ACCURACY: -nan
PSCL2 TIMELY PREFETCHES:          0 LATE PREFETCHES: 0 DROPPED PREFETCHES: 0
PSCL2 COMMIT LATE PREFETCHES: 0 NORMAL LATE: 0 MISSED OPPORTUNITY: 0 UNCOVERED: 0
PSCL2 PREFETCHES SAME FILL-ORIGIN LEVEL: 0 DIFFERENT FILL-ORIGIN LEVEL: 0

LLC SPEC fills:          0  NON-SPEC fills:     590916
LLC Test counter :          0
LLC Leapfrog:          0
LLC MSHR merge:       7888
LLC TOTAL     ACCESS:   20666387  HIT:   12109753  MISS:    8556634  HIT %:    58.5964  MISS %:    41.4036   MPKI: 42.7832
LLC LOAD      TOTAL       ACCESS:    9047026  HIT:    5714030  MISS:    3332996  HIT %:    63.1592  MISS %:    36.8408   MPKI: 16.665
LLC LOAD      NON_SPEC    ACCESS:    1648582  HIT:    1057666  MISS:     590916  HIT %:    64.1561  MISS %:    35.8439   MPKI: 2.95458
LLC LOAD      SPEC        ACCESS:    7398444  HIT:    4656364  MISS:    2742080  HIT %:    62.9371  MISS %:    37.0629   MPKI: 13.7104
LLC PREFETCH  NON_SPEC    ACCESS:    2680341  HIT:     737430  MISS:    1942911  HIT %:    27.5125  MISS %:    72.4875   MPKI: 9.71455
LLC WRITEBACK NON_SPEC    ACCESS:      27154  HIT:      27150  MISS:          4  HIT %:    99.9853  MISS %:  0.0147308   MPKI: 2e-05
LLC CLEAN_EVICTION NON_SPEC    ACCESS:    8751647  HIT:    5489817  MISS:    3261830  HIT %:     62.729  MISS %:     37.271   MPKI: 16.3091
LLC COMMIT LOAD NON_SPEC    ACCESS:     155304  HIT:     138258  MISS:      17046  HIT %:    89.0241  MISS %:    10.9759   MPKI: 0.08523
LLC LOAD TRANSLATION NON_SPEC    ACCESS:       4915  HIT:       3068  MISS:       1847  HIT %:    62.4212  MISS %:    37.5788   MPKI: 0.009235
LLC PREFETCH  REQUESTED:          0  ISSUED:          0  USEFUL:     252879  USELESS:    1688233
LLC USEFUL LOAD PREFETCHES:     252879 PREFETCH ISSUED TO LOWER LEVEL:    1950800  ACCURACY: 12.9628
LLC TIMELY PREFETCHES:     252879 LATE PREFETCHES: 7889 DROPPED PREFETCHES: 0
LLC COMMIT LATE PREFETCHES: 0 NORMAL LATE: 7889 MISSED OPPORTUNITY: 0 UNCOVERED: 3325107
LLC PREFETCHES SAME FILL-ORIGIN LEVEL: 534458 DIFFERENT FILL-ORIGIN LEVEL: 0
LLC AVERAGE MISS LATENCY: 111.671 cycles
LLC AVERAGE MISS LATENCY LOAD: 168.711 cycles
LLC AVERAGE MISS LATENCY PREFETCH: 200.926 cycles
LLC AVERAGE MSHR OCCUPANCY: 1.41961
LLC MSHR FULL: 0
LLC RQ	ACCESS:    9207401	FORWARD:          0	MERGED:          0	TO_CACHE:    9207244
LLC WQ	ACCESS:    8778801	FORWARD:        163	MERGED:          0	TO_CACHE:    8778801
LLC PQ	ACCESS:    2693505	FORWARD:          0	MERGED:       3317	TO_CACHE:    2690182

LLC Dense regions hint to LLC: 0

RAW hits: 30117
Loads Generated: 54367570
Loads sent to L1D: 54337453
Stores Generated: 248282
Stores sent to L1D: 248282
Major fault: 0 Minor fault: 18714
Allocated PAGES: 18714
Total Load insts: 66974698
Total Non-spec loads: 9994472
Percentage of speculative loads: 85.0772

LeapFrogging counter: 618493
Commit hits: 24168155 miss: 20515882
Commit hit %: 54.0868 miss %: 45.9132
Commits not translated: 0
Loads retired: 14719734
Stores retired: 248282
Cache fills: 14719736
L1D response latency: 64.8075 cycles
Load retirement latency: 158.284 cycles
OOO test counter: 0
Discarded buffer inserts: 24168155 hits: 62097 hit %: 0.256937
Filter prediction accuracy: -nan
------------------
Depth Distribution
------------------
depth 0: 14712456
depth 1: 2260237
depth 2: 189019
depth 3: 384010
depth 4: 400700
depth 5: 182834
depth 6: 18550
depth 7: 434
depth 8: 18
depth 9: 21
depth 10: 0
depth 11: 0
depth 12: 0
depth 13: 0
depth 14: 0
depth 15: 0
depth 16: 0
depth 17: 0
depth 18: 0
depth 19: 0
depth 20: 0
depth 21: 0
depth 22: 0
depth 23: 0
depth 24: 0
depth 25: 0
depth 26: 0
depth 27: 0
depth 28: 0
depth 29: 0
Total: 18148279
------------------
ST read accesses: 6869792
ST write accesses: 7849669
PT read accesses: 112110801
PT write accesses: 6911241
FILTER read accesses: 52747492
FILTER write accesses: 33392837
GHR read accesses: 65601641
GHR write accesses: 289803
PERC read accesses: 731278719
PERC write accesses: 30008856
GHR counter read accesses: 29438922
GHR counter write accesses: 18389308
GHR ip read accesses: 74000232
GHR ip write accesses: 58877844
ST tag read accesses: 9678869079
ST tag write accesses: 2247472232

DRAM Statistics
 CHANNEL 0
 RQ ROW_BUFFER_HIT:     625211  ROW_BUFFER_MISS:    4667984
 DBUS_CONGESTED:       1619
 WQ ROW_BUFFER_HIT:    1818670  ROW_BUFFER_MISS:    2800781  FULL:        226

 AVG_CONGESTED_CYCLE: 5
 All warmup complete: 2
Channel 0 Bank busy for read cycles: 0
Channel 0 Bank busy for write cycles: 0
Channel 0
Rank 0
0banks busy for read cycles: 30553353
0banks busy for write cycles: 313258
1banks busy for read cycles: 189529159
1banks busy for write cycles: 52080380
2banks busy for read cycles: 98980691
2banks busy for write cycles: 50247367
3banks busy for read cycles: 52037450
3banks busy for write cycles: 39239932
4banks busy for read cycles: 23812034
4banks busy for write cycles: 28576100
5banks busy for read cycles: 9569166
5banks busy for write cycles: 21469396
6banks busy for read cycles: 3858276
6banks busy for write cycles: 18327676
7banks busy for read cycles: 1917207
7banks busy for write cycles: 21831592
8banks busy for read cycles: 1383437
8banks busy for write cycles: 35253308

CPU 0 Branch Prediction Accuracy: 94.3308% MPKI: 11.3996 Average ROB Occupancy at Mispredict: 48.5767
Branch types
NOT_BRANCH: 159783723 79.8919%
BRANCH_DIRECT_JUMP: 0 0%
BRANCH_INDIRECT: 0 0%
BRANCH_CONDITIONAL: 40215925 20.108%
BRANCH_DIRECT_CALL: 0 0%
BRANCH_INDIRECT_CALL: 0 0%
BRANCH_RETURN: 0 0%
BRANCH_OTHER: 0 0%

DRAM PAGES: 1048576
Allocated PAGES: 18714
