Initialize SIGNATURE TABLE
ST_SET: 1
ST_WAY: 256
ST_TAG_BIT: 16
ST_TAG_MASK: ffff

Initialize PATTERN TABLE
PT_SET: 512
PT_WAY: 4
SIG_DELTA_BIT: 7
C_SIG_BIT: 4
C_DELTA_BIT: 4

Initialize PREFETCH FILTER
FILTER_SET: 1024

Initialize PERCEPTRON
PERC_ENTRIES: 4096
PERC_FEATURES: 9
Initialize SIGNATURE TABLE
ST_SET: 1
ST_WAY: 256
ST_TAG_BIT: 16
ST_TAG_MASK: ffff

Initialize PATTERN TABLE
PT_SET: 512
PT_WAY: 4
SIG_DELTA_BIT: 7
C_SIG_BIT: 4
C_DELTA_BIT: 4

Initialize PREFETCH FILTER
FILTER_SET: 1024

Initialize PERCEPTRON
PERC_ENTRIES: 4096
PERC_FEATURES: 9

*** ChampSim Multicore Out-of-Order Simulator ***

Warmup Instructions: 50000000
Simulation Instructions: 200000000
Number of CPUs: 1
LLC sets: 2048
LLC ways: 16
L0D sets: 16
L0D ways: 2
ROB size: 352
LQ size: 128
SQ size: 72
Secure Berti: OFF
Berti: OFF
Berti Fill: OFF
On commit prefetching: OFF
Hit-based filter: OFF
Time-guarding: ON
Free-slotting: ON
Leap-frogging: ON
Train prefetcher on L0D bypass: OFF
No translation penalty for prefetchers: OFF
Prefetch to L0D only: OFF
Prefetch to L1D only: OFF
Clean evictions: ON
Commit loads: ON
Commit write: ON
Fill commit loads to L2C, LLC: ON
DRAM IO FREQUENCY: 6400
ROB SIZE: 352
Off-chip DRAM Size: 4096 MB Channels: 1 Width: 64-bit Data Rate: 6400 MT/s
CPU 0 runs /home/sumon/secure_berti/GhostMinion/../../traces/gap/pr-14.trace.gz
.gz
BTB has LRU replacement policy
ITLB has LRU replacement policy
DTLB has LRU replacement policy
STLB has LRU replacement policy
L1I has LRU replacement policy
L0D has LRU replacement policy
L1D has LRU replacement policy
PERC_ENTRIES: 4096
L2C has LRU replacement policy
LLC has LRU replacement policy
Heartbeat CPU 0 instructions: 10000001 cycles: 3333808 heartbeat IPC: 2.99957 cumulative IPC: 2.99957 (Simulation time: 0 hr 1 min 21 sec) 
Heartbeat CPU 0 instructions: 20000001 cycles: 17850875 heartbeat IPC: 0.688844 cumulative IPC: 1.12039 (Simulation time: 0 hr 4 min 29 sec) 
Heartbeat CPU 0 instructions: 30000003 cycles: 34401626 heartbeat IPC: 0.604202 cumulative IPC: 0.872052 (Simulation time: 0 hr 7 min 55 sec) 
Heartbeat CPU 0 instructions: 40000003 cycles: 50930622 heartbeat IPC: 0.604997 cumulative IPC: 0.785382 (Simulation time: 0 hr 11 min 20 sec) 
Heartbeat CPU 0 instructions: 50000000 cycles: 67452812 heartbeat IPC: 0.605246 cumulative IPC: 0.741259 (Simulation time: 0 hr 14 min 43 sec) 

Warmup complete CPU 0 instructions: 50000004 cycles: 67452819 (Simulation time: 0 hr 14 min 43 sec) 

Heartbeat CPU 0 instructions: 60000000 cycles: 251871316 heartbeat IPC: 0.0542245 cumulative IPC: 0.0542245 (Simulation time: 0 hr 24 min 47 sec) 
Heartbeat CPU 0 instructions: 70000000 cycles: 436860201 heartbeat IPC: 0.0540573 cumulative IPC: 0.0541408 (Simulation time: 0 hr 34 min 40 sec) 
Heartbeat CPU 0 instructions: 80000001 cycles: 621522256 heartbeat IPC: 0.054153 cumulative IPC: 0.0541448 (Simulation time: 0 hr 40 min 33 sec) 
Heartbeat CPU 0 instructions: 90000000 cycles: 806527277 heartbeat IPC: 0.0540526 cumulative IPC: 0.0541217 (Simulation time: 0 hr 46 min 23 sec) 
Heartbeat CPU 0 instructions: 100000001 cycles: 991643789 heartbeat IPC: 0.05402 cumulative IPC: 0.0541014 (Simulation time: 0 hr 52 min 12 sec) 
Heartbeat CPU 0 instructions: 110000000 cycles: 1176180471 heartbeat IPC: 0.0541898 cumulative IPC: 0.0541161 (Simulation time: 0 hr 57 min 55 sec) 
Heartbeat CPU 0 instructions: 120000001 cycles: 1361259712 heartbeat IPC: 0.0540309 cumulative IPC: 0.0541039 (Simulation time: 1 hr 3 min 38 sec) 
Heartbeat CPU 0 instructions: 130000000 cycles: 1544059055 heartbeat IPC: 0.0547048 cumulative IPC: 0.0541783 (Simulation time: 1 hr 9 min 19 sec) 
Heartbeat CPU 0 instructions: 140000002 cycles: 1728491489 heartbeat IPC: 0.0542204 cumulative IPC: 0.054183 (Simulation time: 1 hr 15 min 2 sec) 
Heartbeat CPU 0 instructions: 150000001 cycles: 1913690655 heartbeat IPC: 0.0539959 cumulative IPC: 0.0541642 (Simulation time: 1 hr 20 min 42 sec) 
Heartbeat CPU 0 instructions: 160000001 cycles: 2098742871 heartbeat IPC: 0.0540388 cumulative IPC: 0.0541528 (Simulation time: 1 hr 26 min 19 sec) 
Heartbeat CPU 0 instructions: 170000003 cycles: 2282121521 heartbeat IPC: 0.054532 cumulative IPC: 0.0541842 (Simulation time: 1 hr 31 min 52 sec) 
Heartbeat CPU 0 instructions: 180000001 cycles: 2466978420 heartbeat IPC: 0.0540959 cumulative IPC: 0.0541774 (Simulation time: 1 hr 37 min 29 sec) 
Heartbeat CPU 0 instructions: 190000000 cycles: 2601589634 heartbeat IPC: 0.074288 cumulative IPC: 0.0552456 (Simulation time: 1 hr 41 min 51 sec) 
Heartbeat CPU 0 instructions: 200000002 cycles: 2642873431 heartbeat IPC: 0.242226 cumulative IPC: 0.0582429 (Simulation time: 1 hr 43 min 53 sec) 
Heartbeat CPU 0 instructions: 210000001 cycles: 2827996229 heartbeat IPC: 0.0540182 cumulative IPC: 0.0579596 (Simulation time: 1 hr 49 min 29 sec) 
Heartbeat CPU 0 instructions: 220000000 cycles: 3013919375 heartbeat IPC: 0.0537857 cumulative IPC: 0.0576962 (Simulation time: 1 hr 55 min 10 sec) 
Heartbeat CPU 0 instructions: 230000000 cycles: 3198837102 heartbeat IPC: 0.0540781 cumulative IPC: 0.0574826 (Simulation time: 2 hr 2 min 14 sec) 
Heartbeat CPU 0 instructions: 240000002 cycles: 3384032463 heartbeat IPC: 0.053997 cumulative IPC: 0.0572879 (Simulation time: 2 hr 9 min 50 sec) 
Heartbeat CPU 0 instructions: 250000003 cycles: 3568356706 heartbeat IPC: 0.0542522 cumulative IPC: 0.0571281 (Simulation time: 2 hr 17 min 16 sec) 
Finished CPU 0 instructions: 200000000 cycles: 3500903888 cumulative IPC: 0.0571281 (Simulation time: 2 hr 17 min 16 sec) 
 Instruction ID: 250000385

ChampSim completed all CPUs

Region of Interest Statistics

CPU 0 cumulative IPC: 0.0571281 instructions: 200000000 cycles: 3500903888
ITLB SPEC fills:          0  NON-SPEC fills:          0
ITLB Test counter :          0
ITLB Leapfrog:          0
ITLB MSHR merge:          0
ITLB TOTAL     ACCESS:   58833381  HIT:   58833381  MISS:          0  HIT %:        100  MISS %:          0   MPKI: 0
ITLB LOAD TRANSLATION NON_SPEC    ACCESS:   58833381  HIT:   58833381  MISS:          0  HIT %:        100  MISS %:          0   MPKI: 0
ITLB PREFETCH  REQUESTED:          0  ISSUED:          0  USEFUL:          0  USELESS:          0
ITLB USEFUL LOAD PREFETCHES:          0 PREFETCH ISSUED TO LOWER LEVEL:          0  ACCURACY: -nan
ITLB TIMELY PREFETCHES:          0 LATE PREFETCHES: 0 DROPPED PREFETCHES: 0
ITLB COMMIT LATE PREFETCHES: 0 NORMAL LATE: 0 MISSED OPPORTUNITY: 0 UNCOVERED: 0
ITLB PREFETCHES SAME FILL-ORIGIN LEVEL: 0 DIFFERENT FILL-ORIGIN LEVEL: 0
ITLB AVERAGE MISS LATENCY: -nan cycles
ITLB AVERAGE MISS LATENCY LOAD: -nan cycles
ITLB AVERAGE MISS LATENCY PREFETCH: -nan cycles
ITLB AVERAGE MSHR OCCUPANCY: 0
ITLB MSHR FULL: 0
ITLB RQ	ACCESS:   59961389	FORWARD:          0	MERGED:    1128007	TO_CACHE:   58833382

DTLB SPEC fills:          0  NON-SPEC fills:          0
DTLB Test counter :          0
DTLB Leapfrog:          0
DTLB MSHR merge:          0
DTLB TOTAL     ACCESS:   71382913  HIT:   48385488  MISS:   22997425  HIT %:     67.783  MISS %:     32.217   MPKI: 114.987
DTLB LOAD TRANSLATION NON_SPEC    ACCESS:   71382913  HIT:   48385488  MISS:   22997425  HIT %:     67.783  MISS %:     32.217   MPKI: 114.987
DTLB PREFETCH  REQUESTED:          0  ISSUED:          0  USEFUL:          0  USELESS:          0
DTLB USEFUL LOAD PREFETCHES:          0 PREFETCH ISSUED TO LOWER LEVEL:          0  ACCURACY: -nan
DTLB TIMELY PREFETCHES:          0 LATE PREFETCHES: 0 DROPPED PREFETCHES: 0
DTLB COMMIT LATE PREFETCHES: 0 NORMAL LATE: 0 MISSED OPPORTUNITY: 0 UNCOVERED: 0
DTLB PREFETCHES SAME FILL-ORIGIN LEVEL: 0 DIFFERENT FILL-ORIGIN LEVEL: 0
DTLB AVERAGE MISS LATENCY: 9.29499 cycles
DTLB AVERAGE MISS LATENCY LOAD: -nan cycles
DTLB AVERAGE MISS LATENCY PREFETCH: -nan cycles
DTLB AVERAGE MSHR OCCUPANCY: 0.196171
DTLB MSHR FULL: 0
DTLB RQ	ACCESS:   72265910	FORWARD:          0	MERGED:     873588	TO_CACHE:   71392322

STLB SPEC fills:          0  NON-SPEC fills:          0
STLB Test counter :          0
STLB Leapfrog:          0
STLB MSHR merge:          0
STLB TOTAL     ACCESS:   22997424  HIT:   22956607  MISS:      40817  HIT %:    99.8225  MISS %:   0.177485   MPKI: 0.204085
STLB LOAD TRANSLATION NON_SPEC    ACCESS:   22997424  HIT:   22956607  MISS:      40817  HIT %:    99.8225  MISS %:   0.177485   MPKI: 0.204085
STLB PREFETCH  REQUESTED:          0  ISSUED:          0  USEFUL:          0  USELESS:          0
STLB USEFUL LOAD PREFETCHES:          0 PREFETCH ISSUED TO LOWER LEVEL:          0  ACCURACY: -nan
STLB TIMELY PREFETCHES:          0 LATE PREFETCHES: 0 DROPPED PREFETCHES: 0
STLB COMMIT LATE PREFETCHES: 0 NORMAL LATE: 0 MISSED OPPORTUNITY: 0 UNCOVERED: 0
STLB PREFETCHES SAME FILL-ORIGIN LEVEL: 0 DIFFERENT FILL-ORIGIN LEVEL: 0
STLB AVERAGE MISS LATENCY: 157.324 cycles
STLB AVERAGE MISS LATENCY LOAD: -nan cycles
STLB AVERAGE MISS LATENCY PREFETCH: -nan cycles
STLB AVERAGE MSHR OCCUPANCY: 0.00115356
STLB MSHR FULL: 0
STLB RQ	ACCESS:   22997424	FORWARD:          0	MERGED:          0	TO_CACHE:   22997424

STLB Hit, L1D data hit: 0
STLB Hit, L2C data hit: 0
STLB Hit, LLC data hit: 0
STLB Hit, LLC data miss: 0
STLB STLB hints to L2: 0
L0D SPEC fills:    5671486  NON-SPEC fills:          0
L0D TimeGuard Request with older TS:      69580 Restricted eviction:      11357 read:      25646
L0D Test counter :          0
L0D Leapfrog:          0
L0D MSHR merge:    3026577
L0D TOTAL     ACCESS:   65933517  HIT:   22694431  MISS:   43239086  HIT %:    34.4202  MISS %:    65.5798   MPKI: 216.195
L0D LOAD      TOTAL       ACCESS:   65933517  HIT:   22694431  MISS:   43239086  HIT %:    34.4202  MISS %:    65.5798   MPKI: 216.195
L0D LOAD      NON_SPEC    ACCESS:   37570790  HIT:      14547  MISS:   37556243  HIT %:  0.0387189  MISS %:    99.9613   MPKI: 187.781
L0D LOAD      SPEC        ACCESS:   28362727  HIT:   22679884  MISS:    5682843  HIT %:    79.9637  MISS %:    20.0363   MPKI: 28.4142
L0D PREFETCH  REQUESTED:          0  ISSUED:          0  USEFUL:          0  USELESS:          0
L0D USEFUL LOAD PREFETCHES:          0 PREFETCH ISSUED TO LOWER LEVEL:          0  ACCURACY: -nan
L0D TIMELY PREFETCHES:          0 LATE PREFETCHES: 0 DROPPED PREFETCHES: 0
L0D COMMIT LATE PREFETCHES: 0 NORMAL LATE: 0 MISSED OPPORTUNITY: 0 UNCOVERED: 43239086
L0D PREFETCHES SAME FILL-ORIGIN LEVEL: 0 DIFFERENT FILL-ORIGIN LEVEL: 0
L0D AVERAGE MISS LATENCY: 69.6186 cycles
L0D AVERAGE MISS LATENCY LOAD: 69.6186 cycles
L0D AVERAGE MISS LATENCY PREFETCH: -nan cycles
L0D AVERAGE MSHR OCCUPANCY: 0.262532
L0D MSHR FULL: 0
L0D RQ	ACCESS:   77350918	FORWARD:          0	MERGED:    8390825	TO_CACHE:   68960093
L0D WQ	ACCESS:    3305817	FORWARD:          0	MERGED:          0	TO_CACHE:    3305817

L1D SPEC fills:          0  NON-SPEC fills:   31941649
L1D Test counter :          0
L1D Leapfrog:          0
L1D MSHR merge:         61
L1D TOTAL     ACCESS:   84540385  HIT:   47432035  MISS:   37108350  HIT %:    56.1058  MISS %:    43.8942   MPKI: 185.542
L1D LOAD      TOTAL       ACCESS:   43239025  HIT:    8721123  MISS:   34517902  HIT %:    20.1696  MISS %:    79.8304   MPKI: 172.59
L1D LOAD      NON_SPEC    ACCESS:   37556242  HIT:    5614593  MISS:   31941649  HIT %:    14.9498  MISS %:    85.0502   MPKI: 159.708
L1D LOAD      SPEC        ACCESS:    5682783  HIT:    3106530  MISS:    2576253  HIT %:    54.6656  MISS %:    45.3344   MPKI: 12.8813
L1D RFO       NON_SPEC    ACCESS:    2505869  HIT:    2440310  MISS:      65559  HIT %:    97.3838  MISS %:    2.61622   MPKI: 0.327795
L1D COMMIT LOAD NON_SPEC    ACCESS:   33125930  HIT:   33125330  MISS:        600  HIT %:    99.9982  MISS %: 0.00181127   MPKI: 0.003
L1D COMMIT WRITE NON_SPEC    ACCESS:    5669561  HIT:    3145272  MISS:    2524289  HIT %:    55.4765  MISS %:    44.5235   MPKI: 12.6214
L1D PREFETCH  REQUESTED:          0  ISSUED:          0  USEFUL:          0  USELESS:          0
L1D USEFUL LOAD PREFETCHES:          0 PREFETCH ISSUED TO LOWER LEVEL:          0  ACCURACY: -nan
L1D TIMELY PREFETCHES:          0 LATE PREFETCHES: 0 DROPPED PREFETCHES: 0
L1D COMMIT LATE PREFETCHES: 0 NORMAL LATE: 0 MISSED OPPORTUNITY: 0 UNCOVERED: 34517902
L1D PREFETCHES SAME FILL-ORIGIN LEVEL: 0 DIFFERENT FILL-ORIGIN LEVEL: 0
L1D AVERAGE MISS LATENCY: 75.7189 cycles
L1D AVERAGE MISS LATENCY LOAD: 80.9362 cycles
L1D AVERAGE MISS LATENCY PREFETCH: -nan cycles
L1D AVERAGE MSHR OCCUPANCY: 0.0770667
L1D MSHR FULL: 0
L1D RQ	ACCESS:   77315416	FORWARD:          0	MERGED:     871239	TO_CACHE:   76365027
L1D WQ	ACCESS:    8977042	FORWARD:      79150	MERGED:       4780	TO_CACHE:    8972262

L1D UNIQUE REGIONS ACCESSED: 0
L1D REGIONS CONFLICTS: 0
L1D Cross Page Prefetch Requests: 0
L1D Same Page Prefetch Requests: 0
L1D ROI Sum of L1D PQ occupancy: 0
L1D PREFETCHES PUSHED FROM L2C: 0
L1I SPEC fills:          0  NON-SPEC fills:          0
L1I Test counter :          0
L1I Leapfrog:          0
L1I MSHR merge:          1
L1I TOTAL     ACCESS:   59961387  HIT:   59961366  MISS:         21  HIT %:        100  MISS %: 3.50225e-05   MPKI: 0.000105
L1I LOAD      TOTAL       ACCESS:   59961387  HIT:   59961366  MISS:         21  HIT %:        100  MISS %: 3.50225e-05   MPKI: 0.000105
L1I LOAD      NON_SPEC    ACCESS:   59961387  HIT:   59961366  MISS:         21  HIT %:        100  MISS %: 3.50225e-05   MPKI: 0.000105
L1I PREFETCH  REQUESTED:          0  ISSUED:          0  USEFUL:          0  USELESS:          0
L1I USEFUL LOAD PREFETCHES:          0 PREFETCH ISSUED TO LOWER LEVEL:          0  ACCURACY: -nan
L1I TIMELY PREFETCHES:          0 LATE PREFETCHES: 0 DROPPED PREFETCHES: 0
L1I COMMIT LATE PREFETCHES: 0 NORMAL LATE: 0 MISSED OPPORTUNITY: 0 UNCOVERED: 21
L1I PREFETCHES SAME FILL-ORIGIN LEVEL: 0 DIFFERENT FILL-ORIGIN LEVEL: 0
L1I AVERAGE MISS LATENCY: 171.143 cycles
L1I AVERAGE MISS LATENCY LOAD: 171.143 cycles
L1I AVERAGE MISS LATENCY PREFETCH: -nan cycles
L1I AVERAGE MSHR OCCUPANCY: 1.33419e-07
L1I MSHR FULL: 0
L1I RQ	ACCESS:   71088553	FORWARD:          0	MERGED:   11127164	TO_CACHE:   59961389

BTB SPEC fills:          0  NON-SPEC fills:          0
BTB Test counter :          0
BTB Leapfrog:          0
BTB MSHR merge:          0
BTB TOTAL     ACCESS:   37022761  HIT:   37022589  MISS:        172  HIT %:    99.9995  MISS %: 0.000464579   MPKI: 0.00086
BTB BRANCH_DIRECT_JUMP	ACCESS:         66  HIT:         33  MISS:         33
BTB BRANCH_INDIRECT	ACCESS:          4  HIT:          0  MISS:          4
BTB BRANCH_CONDITIONAL	ACCESS:   37022625  HIT:   37022536  MISS:         89
BTB BRANCH_DIRECT_CALL	ACCESS:         28  HIT:         10  MISS:         18
BTB BRANCH_INDIRECT_CALL	ACCESS:          5  HIT:          1  MISS:          4
BTB BRANCH_RETURN	ACCESS:         33  HIT:          9  MISS:         24
BTB BRANCH_OTHER ACCESS:          0  HIT:          0  MISS:          0

L2C SPEC fills:          0  NON-SPEC fills:   22538548
L2C Test counter :          0
L2C Leapfrog:          0
L2C MSHR merge:     176661
L2C TOTAL     ACCESS:   42764680  HIT:   15263468  MISS:   27501212  HIT %:    35.6918  MISS %:    64.3082   MPKI: 137.506
L2C LOAD      TOTAL       ACCESS:   34517922  HIT:   11876542  MISS:   22641380  HIT %:    34.4069  MISS %:    65.5931   MPKI: 113.207
L2C LOAD      NON_SPEC    ACCESS:   31941670  HIT:    9403101  MISS:   22538569  HIT %:    29.4384  MISS %:    70.5616   MPKI: 112.693
L2C LOAD      SPEC        ACCESS:    2576252  HIT:    2473441  MISS:     102811  HIT %:    96.0093  MISS %:    3.99072   MPKI: 0.514055
L2C RFO       NON_SPEC    ACCESS:      65559  HIT:         85  MISS:      65474  HIT %:   0.129654  MISS %:    99.8703   MPKI: 0.32737
L2C PREFETCH  NON_SPEC    ACCESS:    5374042  HIT:     696545  MISS:    4677497  HIT %:    12.9613  MISS %:    87.0387   MPKI: 23.3875
L2C WRITEBACK NON_SPEC    ACCESS:      73900  HIT:      72971  MISS:        929  HIT %:    98.7429  MISS %:     1.2571   MPKI: 0.004645
L2C CLEAN_EVICTION NON_SPEC    ACCESS:    2528619  HIT:    2425616  MISS:     103003  HIT %:    95.9265  MISS %:    4.07349   MPKI: 0.515015
L2C COMMIT LOAD NON_SPEC    ACCESS:        600  HIT:        590  MISS:         10  HIT %:    98.3333  MISS %:    1.66667   MPKI: 5e-05
L2C LOAD TRANSLATION NON_SPEC    ACCESS:     204038  HIT:     191119  MISS:      12919  HIT %:    93.6683  MISS %:    6.33166   MPKI: 0.064595
L2C PREFETCH  REQUESTED:    8814069  ISSUED:    8814069  USEFUL:    2761003  USELESS:    1916633
L2C USEFUL LOAD PREFETCHES:    2761003 PREFETCH ISSUED TO LOWER LEVEL:    8108699  ACCURACY: 34.0499
L2C TIMELY PREFETCHES:    2761003 LATE PREFETCHES: 176661 DROPPED PREFETCHES: 0
L2C COMMIT LATE PREFETCHES: 0 NORMAL LATE: 176661 MISSED OPPORTUNITY: 0 UNCOVERED: 22464719
L2C PREFETCHES SAME FILL-ORIGIN LEVEL: 4854158 DIFFERENT FILL-ORIGIN LEVEL: 3254541
L2C AVERAGE MISS LATENCY: 112.17 cycles
L2C AVERAGE MISS LATENCY LOAD: 101.043 cycles
L2C AVERAGE MISS LATENCY PREFETCH: 166.844 cycles
L2C AVERAGE MSHR OCCUPANCY: 0.253485
L2C MSHR FULL: 0
L2C RQ	ACCESS:   34788120	FORWARD:          0	MERGED:          0	TO_CACHE:   34788119
L2C WQ	ACCESS:    2602519	FORWARD:          1	MERGED:          0	TO_CACHE:    2602519
L2C PQ	ACCESS:    8814069	FORWARD:          0	MERGED:       2278	TO_CACHE:    8811791

L2C Instructions Evicting Data 21
L2C Translations Evicting Data 12919
L2C Data Evicting Data 27268639
L2C Instructions Evicting Instructions 0
L2C Translations Evicting Instructions 0
L2C Data Evicting Instructions 21
L2C Instructions Evicting Translations 0
L2C Translations Evicting Translations 0
L2C Data Evicting Translations 12869
L2C Dense regions hint from L2: 0
PSCL5 SPEC fills:          0  NON-SPEC fills:          0
PSCL5 Test counter :          0
PSCL5 Leapfrog:          0
PSCL5 MSHR merge:          0
PSCL5 TOTAL     ACCESS:          0  HIT:          0  MISS:          0  HIT %:       -nan  MISS %:       -nan   MPKI: 0
PSCL5 PREFETCH  REQUESTED:          0  ISSUED:          0  USEFUL:          0  USELESS:          0
PSCL5 USEFUL LOAD PREFETCHES:          0 PREFETCH ISSUED TO LOWER LEVEL:          0  ACCURACY: -nan
PSCL5 TIMELY PREFETCHES:          0 LATE PREFETCHES: 0 DROPPED PREFETCHES: 0
PSCL5 COMMIT LATE PREFETCHES: 0 NORMAL LATE: 0 MISSED OPPORTUNITY: 0 UNCOVERED: 0
PSCL5 PREFETCHES SAME FILL-ORIGIN LEVEL: 0 DIFFERENT FILL-ORIGIN LEVEL: 0

PSCL4 SPEC fills:          0  NON-SPEC fills:          0
PSCL4 Test counter :          0
PSCL4 Leapfrog:          0
PSCL4 MSHR merge:          0
PSCL4 TOTAL     ACCESS:          0  HIT:          0  MISS:          0  HIT %:       -nan  MISS %:       -nan   MPKI: 0
PSCL4 PREFETCH  REQUESTED:          0  ISSUED:          0  USEFUL:          0  USELESS:          0
PSCL4 USEFUL LOAD PREFETCHES:          0 PREFETCH ISSUED TO LOWER LEVEL:          0  ACCURACY: -nan
PSCL4 TIMELY PREFETCHES:          0 LATE PREFETCHES: 0 DROPPED PREFETCHES: 0
PSCL4 COMMIT LATE PREFETCHES: 0 NORMAL LATE: 0 MISSED OPPORTUNITY: 0 UNCOVERED: 0
PSCL4 PREFETCHES SAME FILL-ORIGIN LEVEL: 0 DIFFERENT FILL-ORIGIN LEVEL: 0

PSCL3 SPEC fills:          0  NON-SPEC fills:          0
PSCL3 Test counter :          0
PSCL3 Leapfrog:          0
PSCL3 MSHR merge:          0
PSCL3 TOTAL     ACCESS:          0  HIT:          0  MISS:          0  HIT %:       -nan  MISS %:       -nan   MPKI: 0
PSCL3 PREFETCH  REQUESTED:          0  ISSUED:          0  USEFUL:          0  USELESS:          0
PSCL3 USEFUL LOAD PREFETCHES:          0 PREFETCH ISSUED TO LOWER LEVEL:          0  ACCURACY: -nan
PSCL3 TIMELY PREFETCHES:          0 LATE PREFETCHES: 0 DROPPED PREFETCHES: 0
PSCL3 COMMIT LATE PREFETCHES: 0 NORMAL LATE: 0 MISSED OPPORTUNITY: 0 UNCOVERED: 0
PSCL3 PREFETCHES SAME FILL-ORIGIN LEVEL: 0 DIFFERENT FILL-ORIGIN LEVEL: 0

PSCL2 SPEC fills:          0  NON-SPEC fills:          0
PSCL2 Test counter :          0
PSCL2 Leapfrog:          0
PSCL2 MSHR merge:          0
PSCL2 TOTAL     ACCESS:          0  HIT:          0  MISS:          0  HIT %:       -nan  MISS %:       -nan   MPKI: 0
PSCL2 PREFETCH  REQUESTED:          0  ISSUED:          0  USEFUL:          0  USELESS:          0
PSCL2 USEFUL LOAD PREFETCHES:          0 PREFETCH ISSUED TO LOWER LEVEL:          0  ACCURACY: -nan
PSCL2 TIMELY PREFETCHES:          0 LATE PREFETCHES: 0 DROPPED PREFETCHES: 0
PSCL2 COMMIT LATE PREFETCHES: 0 NORMAL LATE: 0 MISSED OPPORTUNITY: 0 UNCOVERED: 0
PSCL2 PREFETCHES SAME FILL-ORIGIN LEVEL: 0 DIFFERENT FILL-ORIGIN LEVEL: 0

LLC SPEC fills:          0  NON-SPEC fills:    9882510
LLC Test counter :          0
LLC Leapfrog:          0
LLC MSHR merge:      37477
LLC TOTAL     ACCESS:   33173057  HIT:   17181470  MISS:   15991587  HIT %:    51.7934  MISS %:    48.2066   MPKI: 79.9579
LLC LOAD      TOTAL       ACCESS:   22464719  HIT:   12518149  MISS:    9946570  HIT %:    55.7236  MISS %:    44.2764   MPKI: 49.7328
LLC LOAD      NON_SPEC    ACCESS:   22396980  HIT:   12514449  MISS:    9882531  HIT %:    55.8756  MISS %:    44.1244   MPKI: 49.4127
LLC LOAD      SPEC        ACCESS:      67739  HIT:       3700  MISS:      64039  HIT %:    5.46214  MISS %:    94.5379   MPKI: 0.320195
LLC RFO       NON_SPEC    ACCESS:      65474  HIT:       1382  MISS:      64092  HIT %:    2.11076  MISS %:    97.8892   MPKI: 0.32046
LLC PREFETCH  NON_SPEC    ACCESS:    8049861  HIT:    2140771  MISS:    5909090  HIT %:    26.5939  MISS %:    73.4061   MPKI: 29.5454
LLC WRITEBACK NON_SPEC    ACCESS:      67350  HIT:      66824  MISS:        526  HIT %:     99.219  MISS %:   0.780995   MPKI: 0.00263
LLC CLEAN_EVICTION NON_SPEC    ACCESS:    2512724  HIT:    2448247  MISS:      64477  HIT %:     97.434  MISS %:    2.56602   MPKI: 0.322385
LLC COMMIT LOAD NON_SPEC    ACCESS:         10  HIT:          4  MISS:          6  HIT %:         40  MISS %:         60   MPKI: 3e-05
LLC LOAD TRANSLATION NON_SPEC    ACCESS:      12919  HIT:       6093  MISS:       6826  HIT %:    47.1631  MISS %:    52.8369   MPKI: 0.03413
LLC PREFETCH  REQUESTED:          0  ISSUED:          0  USEFUL:     799498  USELESS:    5111210
LLC USEFUL LOAD PREFETCHES:     799498 PREFETCH ISSUED TO LOWER LEVEL:    5946567  ACCURACY: 13.4447
LLC TIMELY PREFETCHES:     799498 LATE PREFETCHES: 37477 DROPPED PREFETCHES: 0
LLC COMMIT LATE PREFETCHES: 0 NORMAL LATE: 37477 MISSED OPPORTUNITY: 0 UNCOVERED: 9909093
LLC PREFETCHES SAME FILL-ORIGIN LEVEL: 1924290 DIFFERENT FILL-ORIGIN LEVEL: 0
LLC AVERAGE MISS LATENCY: 160.208 cycles
LLC AVERAGE MISS LATENCY LOAD: 160.195 cycles
LLC AVERAGE MISS LATENCY PREFETCH: 161.494 cycles
LLC AVERAGE MSHR OCCUPANCY: 0.239603
LLC MSHR FULL: 0
LLC RQ	ACCESS:   22543122	FORWARD:          0	MERGED:          0	TO_CACHE:   22543122
LLC WQ	ACCESS:    2580074	FORWARD:          0	MERGED:          0	TO_CACHE:    2580074
LLC PQ	ACCESS:    8108699	FORWARD:          0	MERGED:          2	TO_CACHE:    8108697

LLC Dense regions hint to LLC: 0

RAW hits: 23
Loads Generated: 77350942
Loads sent to L1D: 77350918
Stores Generated: 3305817
Stores sent to L1D: 3305817
Major fault: 0 Minor fault: 34901
Allocated PAGES: 34901
Total Load insts: 95645186
Total Non-spec loads: 44865107
Percentage of speculative loads: 53.0921

LeapFrogging counter: 0
Commit hits: 5671225 miss: 34076330
Commit hit %: 14.2681 miss %: 85.7319
Commits not translated: 0
Loads retired: 34517899
Stores retired: 3305817
Cache fills: 34517902
L1D response latency: 80.9362 cycles
Load retirement latency: 224.725 cycles
OOO test counter: 0
Discarded buffer inserts: 5671225 hits: 60567 hit %: 1.06797
Filter prediction accuracy: -nan
------------------
Depth Distribution
------------------
depth 0: 32671436
depth 1: 5774797
depth 2: 654793
depth 3: 1120875
depth 4: 821931
depth 5: 263001
depth 6: 21036
depth 7: 26620
depth 8: 8744
depth 9: 12986
depth 10: 12742
depth 11: 161262
depth 12: 129326
depth 13: 30282
depth 14: 46057
depth 15: 321
depth 16: 65
depth 17: 8
depth 18: 0
depth 19: 0
depth 20: 0
depth 21: 0
depth 22: 0
depth 23: 0
depth 24: 0
depth 25: 0
depth 26: 0
depth 27: 0
depth 28: 0
depth 29: 0
Total: 41756282
------------------
ST read accesses: 15802335
ST write accesses: 18715566
PT read accesses: 271872695
PT write accesses: 15770444
FILTER read accesses: 138303453
FILTER write accesses: 92794068
GHR read accesses: 158004513
GHR write accesses: 950457
PERC read accesses: 1822292109
PERC write accesses: 80298534
GHR counter read accesses: 69035802
GHR counter write accesses: 44218973
GHR ip read accesses: 205252260
GHR ip write accesses: 138071604
ST tag read accesses: 22855067267
ST tag write accesses: 5346216136

DRAM Statistics
 CHANNEL 0
 RQ ROW_BUFFER_HIT:    2121010  ROW_BUFFER_MISS:   13805573
 DBUS_CONGESTED:      12859
 WQ ROW_BUFFER_HIT:     873424  ROW_BUFFER_MISS:    1705555  FULL:          0

 AVG_CONGESTED_CYCLE: 2
 All warmup complete: 2
Channel 0 Bank busy for read cycles: 0
Channel 0 Bank busy for write cycles: 0
Channel 0
Rank 0
0banks busy for read cycles: 1367273486
0banks busy for write cycles: 1605687
1banks busy for read cycles: 1371956825
1banks busy for write cycles: 317038138
2banks busy for read cycles: 245173740
2banks busy for write cycles: 64079486
3banks busy for read cycles: 67238980
3banks busy for write cycles: 16455548
4banks busy for read cycles: 17976290
4banks busy for write cycles: 6159977
5banks busy for read cycles: 5383613
5banks busy for write cycles: 3325625
6banks busy for read cycles: 1685410
6banks busy for write cycles: 2553172
7banks busy for read cycles: 371667
7banks busy for write cycles: 3166859
8banks busy for read cycles: 302000
8banks busy for write cycles: 9157386

CPU 0 Branch Prediction Accuracy: 96.9509% MPKI: 5.6443 Average ROB Occupancy at Mispredict: 137.479
Branch types
NOT_BRANCH: 162977012 81.4885%
BRANCH_DIRECT_JUMP: 66 3.3e-05%
BRANCH_INDIRECT: 4 2e-06%
BRANCH_CONDITIONAL: 37022851 18.5114%
BRANCH_DIRECT_CALL: 28 1.4e-05%
BRANCH_INDIRECT_CALL: 5 2.5e-06%
BRANCH_RETURN: 33 1.65e-05%
BRANCH_OTHER: 0 0%

DRAM PAGES: 1048576
Allocated PAGES: 34901
