Initialize SIGNATURE TABLE
ST_SET: 1
ST_WAY: 256
ST_TAG_BIT: 16
ST_TAG_MASK: ffff

Initialize PATTERN TABLE
PT_SET: 512
PT_WAY: 4
SIG_DELTA_BIT: 7
C_SIG_BIT: 4
C_DELTA_BIT: 4

Initialize PREFETCH FILTER
FILTER_SET: 1024

Initialize PERCEPTRON
PERC_ENTRIES: 4096
PERC_FEATURES: 9
Initialize SIGNATURE TABLE
ST_SET: 1
ST_WAY: 256
ST_TAG_BIT: 16
ST_TAG_MASK: ffff

Initialize PATTERN TABLE
PT_SET: 512
PT_WAY: 4
SIG_DELTA_BIT: 7
C_SIG_BIT: 4
C_DELTA_BIT: 4

Initialize PREFETCH FILTER
FILTER_SET: 1024

Initialize PERCEPTRON
PERC_ENTRIES: 4096
PERC_FEATURES: 9

*** ChampSim Multicore Out-of-Order Simulator ***

Warmup Instructions: 50000000
Simulation Instructions: 200000000
Number of CPUs: 1
LLC sets: 2048
LLC ways: 16
L0D sets: 16
L0D ways: 2
ROB size: 352
LQ size: 128
SQ size: 72
Secure Berti: OFF
Berti: OFF
Berti Fill: OFF
On commit prefetching: OFF
Hit-based filter: OFF
Time-guarding: ON
Free-slotting: ON
Leap-frogging: ON
Train prefetcher on L0D bypass: OFF
No translation penalty for prefetchers: OFF
Prefetch to L0D only: OFF
Prefetch to L1D only: OFF
Clean evictions: ON
Commit loads: ON
Commit write: ON
Fill commit loads to L2C, LLC: ON
DRAM IO FREQUENCY: 6400
ROB SIZE: 352
Off-chip DRAM Size: 4096 MB Channels: 1 Width: 64-bit Data Rate: 6400 MT/s
CPU 0 runs /home/sumon/secure_berti/GhostMinion/../../traces/gap/sssp-5.trace.gz
.gz
BTB has LRU replacement policy
ITLB has LRU replacement policy
DTLB has LRU replacement policy
STLB has LRU replacement policy
L1I has LRU replacement policy
L0D has LRU replacement policy
L1D has LRU replacement policy
PERC_ENTRIES: 4096
L2C has LRU replacement policy
LLC has LRU replacement policy
Heartbeat CPU 0 instructions: 10000001 cycles: 3965311 heartbeat IPC: 2.52187 cumulative IPC: 2.52187 (Simulation time: 0 hr 1 min 18 sec) 
Heartbeat CPU 0 instructions: 20000000 cycles: 7810220 heartbeat IPC: 2.60084 cumulative IPC: 2.56075 (Simulation time: 0 hr 2 min 42 sec) 
Heartbeat CPU 0 instructions: 30000003 cycles: 11613107 heartbeat IPC: 2.62958 cumulative IPC: 2.58329 (Simulation time: 0 hr 4 min 10 sec) 
Heartbeat CPU 0 instructions: 40000000 cycles: 15391600 heartbeat IPC: 2.64656 cumulative IPC: 2.59882 (Simulation time: 0 hr 5 min 42 sec) 
Heartbeat CPU 0 instructions: 50000003 cycles: 19152072 heartbeat IPC: 2.65924 cumulative IPC: 2.61068 (Simulation time: 0 hr 7 min 14 sec) 

Warmup complete CPU 0 instructions: 50000003 cycles: 19152072 (Simulation time: 0 hr 7 min 14 sec) 

Heartbeat CPU 0 instructions: 60000002 cycles: 47414419 heartbeat IPC: 0.353828 cumulative IPC: 0.353828 (Simulation time: 0 hr 9 min 29 sec) 
Heartbeat CPU 0 instructions: 70000001 cycles: 75376316 heartbeat IPC: 0.357629 cumulative IPC: 0.355718 (Simulation time: 0 hr 11 min 45 sec) 
Heartbeat CPU 0 instructions: 80000000 cycles: 102380272 heartbeat IPC: 0.370316 cumulative IPC: 0.360455 (Simulation time: 0 hr 14 min 1 sec) 
Heartbeat CPU 0 instructions: 90000001 cycles: 129479467 heartbeat IPC: 0.369015 cumulative IPC: 0.362557 (Simulation time: 0 hr 16 min 20 sec) 
Heartbeat CPU 0 instructions: 100000000 cycles: 156197856 heartbeat IPC: 0.374274 cumulative IPC: 0.364842 (Simulation time: 0 hr 18 min 40 sec) 
Heartbeat CPU 0 instructions: 110000000 cycles: 181985316 heartbeat IPC: 0.387785 cumulative IPC: 0.368475 (Simulation time: 0 hr 21 min 0 sec) 
Heartbeat CPU 0 instructions: 120000000 cycles: 207136797 heartbeat IPC: 0.397591 cumulative IPC: 0.372371 (Simulation time: 0 hr 23 min 19 sec) 
Heartbeat CPU 0 instructions: 130000000 cycles: 233354826 heartbeat IPC: 0.381417 cumulative IPC: 0.373478 (Simulation time: 0 hr 25 min 40 sec) 
Heartbeat CPU 0 instructions: 140000000 cycles: 258710828 heartbeat IPC: 0.394384 cumulative IPC: 0.375691 (Simulation time: 0 hr 27 min 59 sec) 
Heartbeat CPU 0 instructions: 150000000 cycles: 283587066 heartbeat IPC: 0.40199 cumulative IPC: 0.378165 (Simulation time: 0 hr 30 min 18 sec) 
Heartbeat CPU 0 instructions: 160000000 cycles: 308034216 heartbeat IPC: 0.409046 cumulative IPC: 0.380778 (Simulation time: 0 hr 32 min 38 sec) 
Heartbeat CPU 0 instructions: 170000002 cycles: 332494250 heartbeat IPC: 0.40883 cumulative IPC: 0.382968 (Simulation time: 0 hr 34 min 58 sec) 
Heartbeat CPU 0 instructions: 180000000 cycles: 356963351 heartbeat IPC: 0.408679 cumulative IPC: 0.38483 (Simulation time: 0 hr 37 min 18 sec) 
Heartbeat CPU 0 instructions: 190000001 cycles: 382042579 heartbeat IPC: 0.398736 cumulative IPC: 0.385791 (Simulation time: 0 hr 39 min 40 sec) 
Heartbeat CPU 0 instructions: 200000001 cycles: 406294685 heartbeat IPC: 0.412335 cumulative IPC: 0.387454 (Simulation time: 0 hr 41 min 58 sec) 
Heartbeat CPU 0 instructions: 210000000 cycles: 430153672 heartbeat IPC: 0.419129 cumulative IPC: 0.389293 (Simulation time: 0 hr 44 min 14 sec) 
Heartbeat CPU 0 instructions: 220000000 cycles: 454277005 heartbeat IPC: 0.414536 cumulative IPC: 0.390692 (Simulation time: 0 hr 46 min 32 sec) 
Heartbeat CPU 0 instructions: 230000002 cycles: 477946965 heartbeat IPC: 0.422477 cumulative IPC: 0.392332 (Simulation time: 0 hr 48 min 46 sec) 
Heartbeat CPU 0 instructions: 240000002 cycles: 502001782 heartbeat IPC: 0.415717 cumulative IPC: 0.393497 (Simulation time: 0 hr 50 min 57 sec) 
Heartbeat CPU 0 instructions: 250000000 cycles: 525534717 heartbeat IPC: 0.424936 cumulative IPC: 0.394958 (Simulation time: 0 hr 52 min 57 sec) 
Finished CPU 0 instructions: 200000001 cycles: 506382646 cumulative IPC: 0.394958 (Simulation time: 0 hr 52 min 57 sec) 
 Instruction ID: 250000379

ChampSim completed all CPUs

Region of Interest Statistics

CPU 0 cumulative IPC: 0.394958 instructions: 200000001 cycles: 506382646
ITLB SPEC fills:          0  NON-SPEC fills:          0
ITLB Test counter :          0
ITLB Leapfrog:          0
ITLB MSHR merge:          0
ITLB TOTAL     ACCESS:   24223856  HIT:   24223856  MISS:          0  HIT %:        100  MISS %:          0   MPKI: 0
ITLB LOAD TRANSLATION NON_SPEC    ACCESS:   24223856  HIT:   24223856  MISS:          0  HIT %:        100  MISS %:          0   MPKI: 0
ITLB PREFETCH  REQUESTED:          0  ISSUED:          0  USEFUL:          0  USELESS:          0
ITLB USEFUL LOAD PREFETCHES:          0 PREFETCH ISSUED TO LOWER LEVEL:          0  ACCURACY: -nan
ITLB TIMELY PREFETCHES:          0 LATE PREFETCHES: 0 DROPPED PREFETCHES: 0
ITLB COMMIT LATE PREFETCHES: 0 NORMAL LATE: 0 MISSED OPPORTUNITY: 0 UNCOVERED: 0
ITLB PREFETCHES SAME FILL-ORIGIN LEVEL: 0 DIFFERENT FILL-ORIGIN LEVEL: 0
ITLB AVERAGE MISS LATENCY: -nan cycles
ITLB AVERAGE MISS LATENCY LOAD: -nan cycles
ITLB AVERAGE MISS LATENCY PREFETCH: -nan cycles
ITLB AVERAGE MSHR OCCUPANCY: 0
ITLB MSHR FULL: 0
ITLB RQ	ACCESS:   24896731	FORWARD:          0	MERGED:     672875	TO_CACHE:   24223856

DTLB SPEC fills:          0  NON-SPEC fills:          0
DTLB Test counter :          0
DTLB Leapfrog:          0
DTLB MSHR merge:          0
DTLB TOTAL     ACCESS:   48588534  HIT:   44066672  MISS:    4521862  HIT %:    90.6936  MISS %:    9.30644   MPKI: 22.6093
DTLB LOAD TRANSLATION NON_SPEC    ACCESS:   48588534  HIT:   44066672  MISS:    4521862  HIT %:    90.6936  MISS %:    9.30644   MPKI: 22.6093
DTLB PREFETCH  REQUESTED:          0  ISSUED:          0  USEFUL:          0  USELESS:          0
DTLB USEFUL LOAD PREFETCHES:          0 PREFETCH ISSUED TO LOWER LEVEL:          0  ACCURACY: -nan
DTLB TIMELY PREFETCHES:          0 LATE PREFETCHES: 0 DROPPED PREFETCHES: 0
DTLB COMMIT LATE PREFETCHES: 0 NORMAL LATE: 0 MISSED OPPORTUNITY: 0 UNCOVERED: 0
DTLB PREFETCHES SAME FILL-ORIGIN LEVEL: 0 DIFFERENT FILL-ORIGIN LEVEL: 0
DTLB AVERAGE MISS LATENCY: 12.3847 cycles
DTLB AVERAGE MISS LATENCY LOAD: -nan cycles
DTLB AVERAGE MISS LATENCY PREFETCH: -nan cycles
DTLB AVERAGE MSHR OCCUPANCY: 0.22902
DTLB MSHR FULL: 1.42905e-07
DTLB RQ	ACCESS:   53025501	FORWARD:          0	MERGED:    4041799	TO_CACHE:   48983702

STLB SPEC fills:          0  NON-SPEC fills:          0
STLB Test counter :          0
STLB Leapfrog:          0
STLB MSHR merge:          0
STLB TOTAL     ACCESS:    4521862  HIT:    4463307  MISS:      58555  HIT %:    98.7051  MISS %:    1.29493   MPKI: 0.292775
STLB LOAD TRANSLATION NON_SPEC    ACCESS:    4521862  HIT:    4463307  MISS:      58555  HIT %:    98.7051  MISS %:    1.29493   MPKI: 0.292775
STLB PREFETCH  REQUESTED:          0  ISSUED:          0  USEFUL:          0  USELESS:          0
STLB USEFUL LOAD PREFETCHES:          0 PREFETCH ISSUED TO LOWER LEVEL:          0  ACCURACY: -nan
STLB TIMELY PREFETCHES:          0 LATE PREFETCHES: 0 DROPPED PREFETCHES: 0
STLB COMMIT LATE PREFETCHES: 0 NORMAL LATE: 0 MISSED OPPORTUNITY: 0 UNCOVERED: 0
STLB PREFETCHES SAME FILL-ORIGIN LEVEL: 0 DIFFERENT FILL-ORIGIN LEVEL: 0
STLB AVERAGE MISS LATENCY: 244.093 cycles
STLB AVERAGE MISS LATENCY LOAD: -nan cycles
STLB AVERAGE MISS LATENCY PREFETCH: -nan cycles
STLB AVERAGE MSHR OCCUPANCY: 0.010292
STLB MSHR FULL: 0
STLB RQ	ACCESS:    4521862	FORWARD:          0	MERGED:          0	TO_CACHE:    4521862

STLB Hit, L1D data hit: 0
STLB Hit, L2C data hit: 0
STLB Hit, LLC data hit: 0
STLB Hit, LLC data miss: 0
STLB STLB hints to L2: 0
L0D SPEC fills:   25870811  NON-SPEC fills:          0
L0D TimeGuard Request with older TS:    1994937 Restricted eviction:     200343 read:    4067578
L0D Test counter :          0
L0D Leapfrog:          0
L0D MSHR merge:    3000663
L0D TOTAL     ACCESS:   47783488  HIT:   16628796  MISS:   31154692  HIT %:    34.8003  MISS %:    65.1997   MPKI: 155.773
L0D LOAD      TOTAL       ACCESS:   47783488  HIT:   16628796  MISS:   31154692  HIT %:    34.8003  MISS %:    65.1997   MPKI: 155.773
L0D LOAD      NON_SPEC    ACCESS:    5156711  HIT:      73173  MISS:    5083538  HIT %:    1.41899  MISS %:     98.581   MPKI: 25.4177
L0D LOAD      SPEC        ACCESS:   42626777  HIT:   16555623  MISS:   26071154  HIT %:    38.8386  MISS %:    61.1614   MPKI: 130.356
L0D PREFETCH  REQUESTED:          0  ISSUED:          0  USEFUL:          0  USELESS:          0
L0D USEFUL LOAD PREFETCHES:          0 PREFETCH ISSUED TO LOWER LEVEL:          0  ACCURACY: -nan
L0D TIMELY PREFETCHES:          0 LATE PREFETCHES: 0 DROPPED PREFETCHES: 0
L0D COMMIT LATE PREFETCHES: 0 NORMAL LATE: 0 MISSED OPPORTUNITY: 0 UNCOVERED: 31154692
L0D PREFETCHES SAME FILL-ORIGIN LEVEL: 0 DIFFERENT FILL-ORIGIN LEVEL: 0
L0D AVERAGE MISS LATENCY: 31.5035 cycles
L0D AVERAGE MISS LATENCY LOAD: 31.5035 cycles
L0D AVERAGE MISS LATENCY PREFETCH: -nan cycles
L0D AVERAGE MSHR OCCUPANCY: 2.20839
L0D MSHR FULL: 0.0465332
L0D RQ	ACCESS:   76702358	FORWARD:          0	MERGED:   25918209	TO_CACHE:   50784149
L0D WQ	ACCESS:    2241352	FORWARD:          0	MERGED:          0	TO_CACHE:    2241352

L1D SPEC fills:          0  NON-SPEC fills:    1770741
L1D Test counter :          0
L1D Leapfrog:          0
L1D MSHR merge:      13187
L1D TOTAL     ACCESS:   75746208  HIT:   55523580  MISS:   20222628  HIT %:    73.3021  MISS %:    26.6979   MPKI: 101.113
L1D LOAD      TOTAL       ACCESS:   31141505  HIT:   20182214  MISS:   10959291  HIT %:    64.8081  MISS %:    35.1919   MPKI: 54.7965
L1D LOAD      NON_SPEC    ACCESS:    5082466  HIT:    3311725  MISS:    1770741  HIT %:    65.1598  MISS %:    34.8402   MPKI: 8.8537
L1D LOAD      SPEC        ACCESS:   26059039  HIT:   16870489  MISS:    9188550  HIT %:    64.7395  MISS %:    35.2605   MPKI: 45.9427
L1D RFO       NON_SPEC    ACCESS:    2048230  HIT:    1574297  MISS:     473933  HIT %:    76.8613  MISS %:    23.1387   MPKI: 2.36966
L1D COMMIT LOAD NON_SPEC    ACCESS:   18576843  HIT:   18264273  MISS:     312570  HIT %:    98.3174  MISS %:    1.68258   MPKI: 1.56285
L1D COMMIT WRITE NON_SPEC    ACCESS:   23979630  HIT:   15502796  MISS:    8476834  HIT %:    64.6499  MISS %:    35.3501   MPKI: 42.3842
L1D PREFETCH  REQUESTED:          0  ISSUED:          0  USEFUL:          0  USELESS:          0
L1D USEFUL LOAD PREFETCHES:          0 PREFETCH ISSUED TO LOWER LEVEL:          0  ACCURACY: -nan
L1D TIMELY PREFETCHES:          0 LATE PREFETCHES: 0 DROPPED PREFETCHES: 0
L1D COMMIT LATE PREFETCHES: 0 NORMAL LATE: 0 MISSED OPPORTUNITY: 0 UNCOVERED: 10959291
L1D PREFETCHES SAME FILL-ORIGIN LEVEL: 0 DIFFERENT FILL-ORIGIN LEVEL: 0
L1D AVERAGE MISS LATENCY: 43.6903 cycles
L1D AVERAGE MISS LATENCY LOAD: 74.8142 cycles
L1D AVERAGE MISS LATENCY PREFETCH: -nan cycles
L1D AVERAGE MSHR OCCUPANCY: 1.83745
L1D MSHR FULL: 0.043943
L1D RQ	ACCESS:   78576661	FORWARD:          0	MERGED:   23609119	TO_CACHE:   49764131
L1D WQ	ACCESS:   26249479	FORWARD:    5203411	MERGED:      30196	TO_CACHE:   26219283

L1D UNIQUE REGIONS ACCESSED: 0
L1D REGIONS CONFLICTS: 0
L1D Cross Page Prefetch Requests: 0
L1D Same Page Prefetch Requests: 0
L1D ROI Sum of L1D PQ occupancy: 0
L1D PREFETCHES PUSHED FROM L2C: 0
L1I SPEC fills:          0  NON-SPEC fills:          0
L1I Test counter :          0
L1I Leapfrog:          0
L1I MSHR merge:          0
L1I TOTAL     ACCESS:   24896729  HIT:   24896729  MISS:          0  HIT %:        100  MISS %:          0   MPKI: 0
L1I LOAD      TOTAL       ACCESS:   24896729  HIT:   24896729  MISS:          0  HIT %:        100  MISS %:          0   MPKI: 0
L1I LOAD      NON_SPEC    ACCESS:   24896729  HIT:   24896729  MISS:          0  HIT %:        100  MISS %:          0   MPKI: 0
L1I PREFETCH  REQUESTED:          0  ISSUED:          0  USEFUL:          0  USELESS:          0
L1I USEFUL LOAD PREFETCHES:          0 PREFETCH ISSUED TO LOWER LEVEL:          0  ACCURACY: -nan
L1I TIMELY PREFETCHES:          0 LATE PREFETCHES: 0 DROPPED PREFETCHES: 0
L1I COMMIT LATE PREFETCHES: 0 NORMAL LATE: 0 MISSED OPPORTUNITY: 0 UNCOVERED: 0
L1I PREFETCHES SAME FILL-ORIGIN LEVEL: 0 DIFFERENT FILL-ORIGIN LEVEL: 0
L1I AVERAGE MISS LATENCY: -nan cycles
L1I AVERAGE MISS LATENCY LOAD: -nan cycles
L1I AVERAGE MISS LATENCY PREFETCH: -nan cycles
L1I AVERAGE MSHR OCCUPANCY: 0
L1I MSHR FULL: 0
L1I RQ	ACCESS:   38843803	FORWARD:          0	MERGED:   13947072	TO_CACHE:   24896731

BTB SPEC fills:          0  NON-SPEC fills:          0
BTB Test counter :          0
BTB Leapfrog:          0
BTB MSHR merge:          0
BTB TOTAL     ACCESS:   29044147  HIT:   29044001  MISS:        146  HIT %:    99.9995  MISS %: 0.000502683   MPKI: 0.00073
BTB BRANCH_DIRECT_JUMP	ACCESS:    9217196  HIT:    9217156  MISS:         40
BTB BRANCH_INDIRECT	ACCESS:          0  HIT:          0  MISS:          0
BTB BRANCH_CONDITIONAL	ACCESS:   19824303  HIT:   19824221  MISS:         82
BTB BRANCH_DIRECT_CALL	ACCESS:       1324  HIT:       1315  MISS:          9
BTB BRANCH_INDIRECT_CALL	ACCESS:          0  HIT:          0  MISS:          0
BTB BRANCH_RETURN	ACCESS:       1324  HIT:       1309  MISS:         15
BTB BRANCH_OTHER ACCESS:          0  HIT:          0  MISS:          0

L2C SPEC fills:          0  NON-SPEC fills:    1138601
L2C Test counter :          0
L2C Leapfrog:          0
L2C MSHR merge:     116909
L2C TOTAL     ACCESS:   24071541  HIT:    8916838  MISS:   15154703  HIT %:    37.0431  MISS %:    62.9569   MPKI: 75.7735
L2C LOAD      TOTAL       ACCESS:   10959266  HIT:    4101028  MISS:    6858238  HIT %:    37.4206  MISS %:    62.5794   MPKI: 34.2912
L2C LOAD      NON_SPEC    ACCESS:    1770736  HIT:     632135  MISS:    1138601  HIT %:     35.699  MISS %:     64.301   MPKI: 5.693
L2C LOAD      SPEC        ACCESS:    9188530  HIT:    3468893  MISS:    5719637  HIT %:    37.7524  MISS %:    62.2476   MPKI: 28.5982
L2C RFO       NON_SPEC    ACCESS:     473904  HIT:     293923  MISS:     179981  HIT %:    62.0216  MISS %:    37.9784   MPKI: 0.899905
L2C PREFETCH  NON_SPEC    ACCESS:    2602120  HIT:     362673  MISS:    2239447  HIT %:    13.9376  MISS %:    86.0624   MPKI: 11.1972
L2C WRITEBACK NON_SPEC    ACCESS:     824910  HIT:     823247  MISS:       1663  HIT %:    99.7984  MISS %:   0.201598   MPKI: 0.008315
L2C CLEAN_EVICTION NON_SPEC    ACCESS:    8606028  HIT:    2855478  MISS:    5750550  HIT %:      33.18  MISS %:      66.82   MPKI: 28.7527
L2C COMMIT LOAD NON_SPEC    ACCESS:     312540  HIT:     231991  MISS:      80549  HIT %:    74.2276  MISS %:    25.7724   MPKI: 0.402745
L2C LOAD TRANSLATION NON_SPEC    ACCESS:     292773  HIT:     248498  MISS:      44275  HIT %:    84.8774  MISS %:    15.1226   MPKI: 0.221375
L2C PREFETCH  REQUESTED:    4200901  ISSUED:    4200897  USEFUL:    1234260  USELESS:    1008748
L2C USEFUL LOAD PREFETCHES:    1234260 PREFETCH ISSUED TO LOWER LEVEL:    3670462  ACCURACY: 33.6268
L2C TIMELY PREFETCHES:    1234260 LATE PREFETCHES: 116935 DROPPED PREFETCHES: 0
L2C COMMIT LATE PREFETCHES: 0 NORMAL LATE: 116935 MISSED OPPORTUNITY: 0 UNCOVERED: 6741303
L2C PREFETCHES SAME FILL-ORIGIN LEVEL: 2356382 DIFFERENT FILL-ORIGIN LEVEL: 1314080
L2C AVERAGE MISS LATENCY: 79.1582 cycles
L2C AVERAGE MISS LATENCY LOAD: 100.233 cycles
L2C AVERAGE MISS LATENCY PREFETCH: 202.122 cycles
L2C AVERAGE MSHR OCCUPANCY: 2.3999
L2C MSHR FULL: 0
L2C RQ	ACCESS:   12038566	FORWARD:          0	MERGED:          0	TO_CACHE:   12038482
L2C WQ	ACCESS:    9431590	FORWARD:         84	MERGED:        652	TO_CACHE:    9430938
L2C PQ	ACCESS:    4200897	FORWARD:          0	MERGED:      19185	TO_CACHE:    4181712

L2C Instructions Evicting Data 0
L2C Translations Evicting Data 44070
L2C Data Evicting Data 3622404
L2C Instructions Evicting Instructions 0
L2C Translations Evicting Instructions 0
L2C Data Evicting Instructions 0
L2C Instructions Evicting Translations 0
L2C Translations Evicting Translations 205
L2C Data Evicting Translations 16174
L2C Dense regions hint from L2: 0
PSCL5 SPEC fills:          0  NON-SPEC fills:          0
PSCL5 Test counter :          0
PSCL5 Leapfrog:          0
PSCL5 MSHR merge:          0
PSCL5 TOTAL     ACCESS:          0  HIT:          0  MISS:          0  HIT %:       -nan  MISS %:       -nan   MPKI: 0
PSCL5 PREFETCH  REQUESTED:          0  ISSUED:          0  USEFUL:          0  USELESS:          0
PSCL5 USEFUL LOAD PREFETCHES:          0 PREFETCH ISSUED TO LOWER LEVEL:          0  ACCURACY: -nan
PSCL5 TIMELY PREFETCHES:          0 LATE PREFETCHES: 0 DROPPED PREFETCHES: 0
PSCL5 COMMIT LATE PREFETCHES: 0 NORMAL LATE: 0 MISSED OPPORTUNITY: 0 UNCOVERED: 0
PSCL5 PREFETCHES SAME FILL-ORIGIN LEVEL: 0 DIFFERENT FILL-ORIGIN LEVEL: 0

PSCL4 SPEC fills:          0  NON-SPEC fills:          0
PSCL4 Test counter :          0
PSCL4 Leapfrog:          0
PSCL4 MSHR merge:          0
PSCL4 TOTAL     ACCESS:          0  HIT:          0  MISS:          0  HIT %:       -nan  MISS %:       -nan   MPKI: 0
PSCL4 PREFETCH  REQUESTED:          0  ISSUED:          0  USEFUL:          0  USELESS:          0
PSCL4 USEFUL LOAD PREFETCHES:          0 PREFETCH ISSUED TO LOWER LEVEL:          0  ACCURACY: -nan
PSCL4 TIMELY PREFETCHES:          0 LATE PREFETCHES: 0 DROPPED PREFETCHES: 0
PSCL4 COMMIT LATE PREFETCHES: 0 NORMAL LATE: 0 MISSED OPPORTUNITY: 0 UNCOVERED: 0
PSCL4 PREFETCHES SAME FILL-ORIGIN LEVEL: 0 DIFFERENT FILL-ORIGIN LEVEL: 0

PSCL3 SPEC fills:          0  NON-SPEC fills:          0
PSCL3 Test counter :          0
PSCL3 Leapfrog:          0
PSCL3 MSHR merge:          0
PSCL3 TOTAL     ACCESS:          0  HIT:          0  MISS:          0  HIT %:       -nan  MISS %:       -nan   MPKI: 0
PSCL3 PREFETCH  REQUESTED:          0  ISSUED:          0  USEFUL:          0  USELESS:          0
PSCL3 USEFUL LOAD PREFETCHES:          0 PREFETCH ISSUED TO LOWER LEVEL:          0  ACCURACY: -nan
PSCL3 TIMELY PREFETCHES:          0 LATE PREFETCHES: 0 DROPPED PREFETCHES: 0
PSCL3 COMMIT LATE PREFETCHES: 0 NORMAL LATE: 0 MISSED OPPORTUNITY: 0 UNCOVERED: 0
PSCL3 PREFETCHES SAME FILL-ORIGIN LEVEL: 0 DIFFERENT FILL-ORIGIN LEVEL: 0

PSCL2 SPEC fills:          0  NON-SPEC fills:          0
PSCL2 Test counter :          0
PSCL2 Leapfrog:          0
PSCL2 MSHR merge:          0
PSCL2 TOTAL     ACCESS:          0  HIT:          0  MISS:          0  HIT %:       -nan  MISS %:       -nan   MPKI: 0
PSCL2 PREFETCH  REQUESTED:          0  ISSUED:          0  USEFUL:          0  USELESS:          0
PSCL2 USEFUL LOAD PREFETCHES:          0 PREFETCH ISSUED TO LOWER LEVEL:          0  ACCURACY: -nan
PSCL2 TIMELY PREFETCHES:          0 LATE PREFETCHES: 0 DROPPED PREFETCHES: 0
PSCL2 COMMIT LATE PREFETCHES: 0 NORMAL LATE: 0 MISSED OPPORTUNITY: 0 UNCOVERED: 0
PSCL2 PREFETCHES SAME FILL-ORIGIN LEVEL: 0 DIFFERENT FILL-ORIGIN LEVEL: 0

LLC SPEC fills:          0  NON-SPEC fills:     474061
LLC Test counter :          0
LLC Leapfrog:          0
LLC MSHR merge:      14656
LLC TOTAL     ACCESS:   18088560  HIT:    9305505  MISS:    8783055  HIT %:    51.4441  MISS %:    48.5559   MPKI: 43.9153
LLC LOAD      TOTAL       ACCESS:    6741278  HIT:    3813661  MISS:    2927617  HIT %:    56.5718  MISS %:    43.4282   MPKI: 14.6381
LLC LOAD      NON_SPEC    ACCESS:    1129061  HIT:     655000  MISS:     474061  HIT %:    58.0128  MISS %:    41.9872   MPKI: 2.3703
LLC LOAD      SPEC        ACCESS:    5612217  HIT:    3158661  MISS:    2453556  HIT %:    56.2819  MISS %:    43.7181   MPKI: 12.2678
LLC RFO       NON_SPEC    ACCESS:     179978  HIT:      70989  MISS:     108989  HIT %:    39.4432  MISS %:    60.5568   MPKI: 0.544945
LLC PREFETCH  NON_SPEC    ACCESS:    3647608  HIT:     890238  MISS:    2757370  HIT %:    24.4061  MISS %:    75.5939   MPKI: 13.7868
LLC WRITEBACK NON_SPEC    ACCESS:     309837  HIT:     300658  MISS:       9179  HIT %:    97.0375  MISS %:    2.96253   MPKI: 0.045895
LLC CLEAN_EVICTION NON_SPEC    ACCESS:    7085084  HIT:    4156079  MISS:    2929005  HIT %:    58.6596  MISS %:    41.3404   MPKI: 14.645
LLC COMMIT LOAD NON_SPEC    ACCESS:      80500  HIT:      64462  MISS:      16038  HIT %:     80.077  MISS %:     19.923   MPKI: 0.08019
LLC LOAD TRANSLATION NON_SPEC    ACCESS:      44275  HIT:       9418  MISS:      34857  HIT %:    21.2716  MISS %:    78.7284   MPKI: 0.174285
LLC PREFETCH  REQUESTED:          0  ISSUED:          0  USEFUL:     310576  USELESS:    2455233
LLC USEFUL LOAD PREFETCHES:     310576 PREFETCH ISSUED TO LOWER LEVEL:    2772028  ACCURACY: 11.2039
LLC TIMELY PREFETCHES:     310576 LATE PREFETCHES: 14656 DROPPED PREFETCHES: 0
LLC COMMIT LATE PREFETCHES: 0 NORMAL LATE: 14656 MISSED OPPORTUNITY: 0 UNCOVERED: 2912961
LLC PREFETCHES SAME FILL-ORIGIN LEVEL: 782573 DIFFERENT FILL-ORIGIN LEVEL: 0
LLC AVERAGE MISS LATENCY: 128.978 cycles
LLC AVERAGE MISS LATENCY LOAD: 174.278 cycles
LLC AVERAGE MISS LATENCY PREFETCH: 207.535 cycles
LLC AVERAGE MSHR OCCUPANCY: 2.087
LLC MSHR FULL: 0
LLC RQ	ACCESS:    7046107	FORWARD:          0	MERGED:          0	TO_CACHE:    7046030
LLC WQ	ACCESS:    7394921	FORWARD:         81	MERGED:          0	TO_CACHE:    7394921
LLC PQ	ACCESS:    3670462	FORWARD:          0	MERGED:       3560	TO_CACHE:    3666898

LLC Dense regions hint to LLC: 0

RAW hits: 62576
Loads Generated: 76764937
Loads sent to L1D: 76702358
Stores Generated: 2241351
Stores sent to L1D: 2241352
Major fault: 0 Minor fault: 36864
Allocated PAGES: 36864
Total Load insts: 93558383
Total Non-spec loads: 6329965
Percentage of speculative loads: 93.2342

LeapFrogging counter: 324748
Commit hits: 24008125 miss: 47421971
Commit hit %: 33.6107 miss %: 66.3893
Commits not translated: 0
Loads retired: 10959283
Stores retired: 2241352
Cache fills: 10959291
L1D response latency: 74.8142 cycles
Load retirement latency: 171.022 cycles
OOO test counter: 0
Discarded buffer inserts: 24008125 hits: 317636 hit %: 1.32304
Filter prediction accuracy: -nan
------------------
Depth Distribution
------------------
depth 0: 8316571
depth 1: 3396150
depth 2: 422642
depth 3: 417844
depth 4: 401626
depth 5: 205080
depth 6: 32182
depth 7: 9902
depth 8: 3387
depth 9: 2570
depth 10: 453
depth 11: 1372
depth 12: 866
depth 13: 124
depth 14: 1081
depth 15: 41
depth 16: 8
depth 17: 1
depth 18: 0
depth 19: 0
depth 20: 0
depth 21: 0
depth 22: 0
depth 23: 0
depth 24: 0
depth 25: 0
depth 26: 0
depth 27: 0
depth 28: 0
depth 29: 0
Total: 13211900
------------------
ST read accesses: 7190462
ST write accesses: 3768803
PT read accesses: 107258007
PT write accesses: 7708660
FILTER read accesses: 44493013
FILTER write accesses: 30656951
GHR read accesses: 32992017
GHR write accesses: 381419
PERC read accesses: 664749009
PERC write accesses: 39502197
GHR counter read accesses: 21918530
GHR counter write accesses: 15936940
GHR ip read accesses: 62438832
GHR ip write accesses: 43837060
ST tag read accesses: 6139926692
ST tag write accesses: 1006404452

DRAM Statistics
 CHANNEL 0
 RQ ROW_BUFFER_HIT:     948594  ROW_BUFFER_MISS:    4894358
 DBUS_CONGESTED:       1945
 WQ ROW_BUFFER_HIT:    1801938  ROW_BUFFER_MISS:    2867739  FULL:      13779

 AVG_CONGESTED_CYCLE: 5
 All warmup complete: 2
Channel 0 Bank busy for read cycles: 0
Channel 0 Bank busy for write cycles: 0
Channel 0
Rank 0
0banks busy for read cycles: 3066820
0banks busy for write cycles: 14041
1banks busy for read cycles: 123913656
1banks busy for write cycles: 3514598
2banks busy for read cycles: 85584745
2banks busy for write cycles: 5048832
3banks busy for read cycles: 58429887
3banks busy for write cycles: 6816286
4banks busy for read cycles: 33966274
4banks busy for write cycles: 9019496
5banks busy for read cycles: 17140490
5banks busy for write cycles: 12283504
6banks busy for read cycles: 7741564
6banks busy for write cycles: 19094371
7banks busy for read cycles: 3650547
7banks busy for write cycles: 38281821
8banks busy for read cycles: 3070215
8banks busy for write cycles: 75745500

CPU 0 Branch Prediction Accuracy: 97.7638% MPKI: 3.32603 Average ROB Occupancy at Mispredict: 160.843
Branch types
NOT_BRANCH: 170252779 85.1264%
BRANCH_DIRECT_JUMP: 9217196 4.6086%
BRANCH_INDIRECT: 0 0%
BRANCH_CONDITIONAL: 20527371 10.2637%
BRANCH_DIRECT_CALL: 1324 0.000662%
BRANCH_INDIRECT_CALL: 0 0%
BRANCH_RETURN: 1324 0.000662%
BRANCH_OTHER: 0 0%

DRAM PAGES: 1048576
Allocated PAGES: 36864
