Initialize SIGNATURE TABLE
ST_SET: 1
ST_WAY: 256
ST_TAG_BIT: 16
ST_TAG_MASK: ffff

Initialize PATTERN TABLE
PT_SET: 512
PT_WAY: 4
SIG_DELTA_BIT: 7
C_SIG_BIT: 4
C_DELTA_BIT: 4

Initialize PREFETCH FILTER
FILTER_SET: 1024

Initialize PERCEPTRON
PERC_ENTRIES: 4096
PERC_FEATURES: 9
Initialize SIGNATURE TABLE
ST_SET: 1
ST_WAY: 256
ST_TAG_BIT: 16
ST_TAG_MASK: ffff

Initialize PATTERN TABLE
PT_SET: 512
PT_WAY: 4
SIG_DELTA_BIT: 7
C_SIG_BIT: 4
C_DELTA_BIT: 4

Initialize PREFETCH FILTER
FILTER_SET: 1024

Initialize PERCEPTRON
PERC_ENTRIES: 4096
PERC_FEATURES: 9

*** ChampSim Multicore Out-of-Order Simulator ***

Warmup Instructions: 50000000
Simulation Instructions: 200000000
Number of CPUs: 1
LLC sets: 2048
LLC ways: 16
L0D sets: 16
L0D ways: 2
ROB size: 352
LQ size: 128
SQ size: 72
Secure Berti: OFF
Berti: OFF
Berti Fill: OFF
On commit prefetching: OFF
Hit-based filter: OFF
Time-guarding: ON
Free-slotting: ON
Leap-frogging: ON
Train prefetcher on L0D bypass: OFF
No translation penalty for prefetchers: OFF
Prefetch to L0D only: OFF
Prefetch to L1D only: OFF
Clean evictions: ON
Commit loads: ON
Commit write: ON
Fill commit loads to L2C, LLC: ON
DRAM IO FREQUENCY: 6400
ROB SIZE: 352
Off-chip DRAM Size: 4096 MB Channels: 1 Width: 64-bit Data Rate: 6400 MT/s
CPU 0 runs /home/sumon/secure_berti/GhostMinion/../../traces/gap/sssp-3.trace.gz
.gz
BTB has LRU replacement policy
ITLB has LRU replacement policy
DTLB has LRU replacement policy
STLB has LRU replacement policy
L1I has LRU replacement policy
L0D has LRU replacement policy
L1D has LRU replacement policy
PERC_ENTRIES: 4096
L2C has LRU replacement policy
LLC has LRU replacement policy
Heartbeat CPU 0 instructions: 10000001 cycles: 4047374 heartbeat IPC: 2.47074 cumulative IPC: 2.47074 (Simulation time: 0 hr 1 min 57 sec) 
Heartbeat CPU 0 instructions: 20000001 cycles: 7969803 heartbeat IPC: 2.54944 cumulative IPC: 2.50947 (Simulation time: 0 hr 4 min 34 sec) 
Heartbeat CPU 0 instructions: 30000002 cycles: 11845817 heartbeat IPC: 2.57997 cumulative IPC: 2.53254 (Simulation time: 0 hr 7 min 23 sec) 
Heartbeat CPU 0 instructions: 40000001 cycles: 15700476 heartbeat IPC: 2.59426 cumulative IPC: 2.54769 (Simulation time: 0 hr 10 min 11 sec) 
Heartbeat CPU 0 instructions: 50000000 cycles: 19536042 heartbeat IPC: 2.60718 cumulative IPC: 2.55937 (Simulation time: 0 hr 12 min 59 sec) 

Warmup complete CPU 0 instructions: 50000004 cycles: 19536043 (Simulation time: 0 hr 12 min 59 sec) 

Heartbeat CPU 0 instructions: 60000001 cycles: 48429968 heartbeat IPC: 0.346094 cumulative IPC: 0.346093 (Simulation time: 0 hr 17 min 14 sec) 
Heartbeat CPU 0 instructions: 70000000 cycles: 76241580 heartbeat IPC: 0.359562 cumulative IPC: 0.352699 (Simulation time: 0 hr 21 min 26 sec) 
Heartbeat CPU 0 instructions: 80000000 cycles: 103427280 heartbeat IPC: 0.36784 cumulative IPC: 0.357606 (Simulation time: 0 hr 25 min 35 sec) 
Heartbeat CPU 0 instructions: 90000002 cycles: 130757479 heartbeat IPC: 0.365896 cumulative IPC: 0.359643 (Simulation time: 0 hr 29 min 38 sec) 
Heartbeat CPU 0 instructions: 100000000 cycles: 156913720 heartbeat IPC: 0.382318 cumulative IPC: 0.36396 (Simulation time: 0 hr 33 min 40 sec) 
Heartbeat CPU 0 instructions: 110000000 cycles: 183633579 heartbeat IPC: 0.374253 cumulative IPC: 0.365636 (Simulation time: 0 hr 37 min 42 sec) 
Heartbeat CPU 0 instructions: 120000000 cycles: 208929813 heartbeat IPC: 0.395316 cumulative IPC: 0.3696 (Simulation time: 0 hr 41 min 43 sec) 
Heartbeat CPU 0 instructions: 130000002 cycles: 234506196 heartbeat IPC: 0.390986 cumulative IPC: 0.372145 (Simulation time: 0 hr 45 min 45 sec) 
Heartbeat CPU 0 instructions: 140000001 cycles: 259698147 heartbeat IPC: 0.396952 cumulative IPC: 0.374747 (Simulation time: 0 hr 48 min 59 sec) 
Heartbeat CPU 0 instructions: 150000000 cycles: 284883308 heartbeat IPC: 0.397059 cumulative IPC: 0.376865 (Simulation time: 0 hr 51 min 11 sec) 
Heartbeat CPU 0 instructions: 160000001 cycles: 309637375 heartbeat IPC: 0.403974 cumulative IPC: 0.379178 (Simulation time: 0 hr 53 min 14 sec) 
Heartbeat CPU 0 instructions: 170000003 cycles: 334156392 heartbeat IPC: 0.407847 cumulative IPC: 0.381412 (Simulation time: 0 hr 55 min 12 sec) 
Heartbeat CPU 0 instructions: 180000003 cycles: 358465055 heartbeat IPC: 0.411376 cumulative IPC: 0.383561 (Simulation time: 0 hr 57 min 6 sec) 
Heartbeat CPU 0 instructions: 190000001 cycles: 382470238 heartbeat IPC: 0.416577 cumulative IPC: 0.385745 (Simulation time: 0 hr 59 min 1 sec) 
Heartbeat CPU 0 instructions: 200000002 cycles: 406407310 heartbeat IPC: 0.417762 cumulative IPC: 0.387726 (Simulation time: 1 hr 0 min 55 sec) 
Heartbeat CPU 0 instructions: 210000003 cycles: 430497349 heartbeat IPC: 0.415109 cumulative IPC: 0.389331 (Simulation time: 1 hr 2 min 49 sec) 
Heartbeat CPU 0 instructions: 220000000 cycles: 454519548 heartbeat IPC: 0.416281 cumulative IPC: 0.390819 (Simulation time: 1 hr 4 min 45 sec) 
Heartbeat CPU 0 instructions: 230000002 cycles: 478512383 heartbeat IPC: 0.416791 cumulative IPC: 0.392177 (Simulation time: 1 hr 6 min 39 sec) 
Heartbeat CPU 0 instructions: 240000000 cycles: 502345222 heartbeat IPC: 0.419589 cumulative IPC: 0.39353 (Simulation time: 1 hr 8 min 34 sec) 
Heartbeat CPU 0 instructions: 250000002 cycles: 526250624 heartbeat IPC: 0.418316 cumulative IPC: 0.3947 (Simulation time: 1 hr 10 min 29 sec) 
Finished CPU 0 instructions: 200000002 cycles: 506714582 cumulative IPC: 0.3947 (Simulation time: 1 hr 10 min 29 sec) 
 Instruction ID: 250000220

ChampSim completed all CPUs

Region of Interest Statistics

CPU 0 cumulative IPC: 0.3947 instructions: 200000002 cycles: 506714582
ITLB SPEC fills:          0  NON-SPEC fills:          0
ITLB Test counter :          0
ITLB Leapfrog:          0
ITLB MSHR merge:          0
ITLB TOTAL     ACCESS:   24226042  HIT:   24226042  MISS:          0  HIT %:        100  MISS %:          0   MPKI: 0
ITLB LOAD TRANSLATION NON_SPEC    ACCESS:   24226042  HIT:   24226042  MISS:          0  HIT %:        100  MISS %:          0   MPKI: 0
ITLB PREFETCH  REQUESTED:          0  ISSUED:          0  USEFUL:          0  USELESS:          0
ITLB USEFUL LOAD PREFETCHES:          0 PREFETCH ISSUED TO LOWER LEVEL:          0  ACCURACY: -nan
ITLB TIMELY PREFETCHES:          0 LATE PREFETCHES: 0 DROPPED PREFETCHES: 0
ITLB COMMIT LATE PREFETCHES: 0 NORMAL LATE: 0 MISSED OPPORTUNITY: 0 UNCOVERED: 0
ITLB PREFETCHES SAME FILL-ORIGIN LEVEL: 0 DIFFERENT FILL-ORIGIN LEVEL: 0
ITLB AVERAGE MISS LATENCY: -nan cycles
ITLB AVERAGE MISS LATENCY LOAD: -nan cycles
ITLB AVERAGE MISS LATENCY PREFETCH: -nan cycles
ITLB AVERAGE MSHR OCCUPANCY: 0
ITLB MSHR FULL: 0
ITLB RQ	ACCESS:   24889025	FORWARD:          0	MERGED:     662984	TO_CACHE:   24226041

DTLB SPEC fills:          0  NON-SPEC fills:          0
DTLB Test counter :          0
DTLB Leapfrog:          0
DTLB MSHR merge:          0
DTLB TOTAL     ACCESS:   47540037  HIT:   42995870  MISS:    4544167  HIT %:    90.4414  MISS %:    9.55861   MPKI: 22.7208
DTLB LOAD TRANSLATION NON_SPEC    ACCESS:   47540037  HIT:   42995870  MISS:    4544167  HIT %:    90.4414  MISS %:    9.55861   MPKI: 22.7208
DTLB PREFETCH  REQUESTED:          0  ISSUED:          0  USEFUL:          0  USELESS:          0
DTLB USEFUL LOAD PREFETCHES:          0 PREFETCH ISSUED TO LOWER LEVEL:          0  ACCURACY: -nan
DTLB TIMELY PREFETCHES:          0 LATE PREFETCHES: 0 DROPPED PREFETCHES: 0
DTLB COMMIT LATE PREFETCHES: 0 NORMAL LATE: 0 MISSED OPPORTUNITY: 0 UNCOVERED: 0
DTLB PREFETCHES SAME FILL-ORIGIN LEVEL: 0 DIFFERENT FILL-ORIGIN LEVEL: 0
DTLB AVERAGE MISS LATENCY: 12.3495 cycles
DTLB AVERAGE MISS LATENCY LOAD: -nan cycles
DTLB AVERAGE MISS LATENCY PREFETCH: -nan cycles
DTLB AVERAGE MSHR OCCUPANCY: 0.22521
DTLB MSHR FULL: 2.08988e-07
DTLB RQ	ACCESS:   58798618	FORWARD:          0	MERGED:   10948884	TO_CACHE:   47849734

STLB SPEC fills:          0  NON-SPEC fills:          0
STLB Test counter :          0
STLB Leapfrog:          0
STLB MSHR merge:          0
STLB TOTAL     ACCESS:    4544167  HIT:    4486628  MISS:      57539  HIT %:    98.7338  MISS %:    1.26622   MPKI: 0.287695
STLB LOAD TRANSLATION NON_SPEC    ACCESS:    4544167  HIT:    4486628  MISS:      57539  HIT %:    98.7338  MISS %:    1.26622   MPKI: 0.287695
STLB PREFETCH  REQUESTED:          0  ISSUED:          0  USEFUL:          0  USELESS:          0
STLB USEFUL LOAD PREFETCHES:          0 PREFETCH ISSUED TO LOWER LEVEL:          0  ACCURACY: -nan
STLB TIMELY PREFETCHES:          0 LATE PREFETCHES: 0 DROPPED PREFETCHES: 0
STLB COMMIT LATE PREFETCHES: 0 NORMAL LATE: 0 MISSED OPPORTUNITY: 0 UNCOVERED: 0
STLB PREFETCHES SAME FILL-ORIGIN LEVEL: 0 DIFFERENT FILL-ORIGIN LEVEL: 0
STLB AVERAGE MISS LATENCY: 245.906 cycles
STLB AVERAGE MISS LATENCY LOAD: -nan cycles
STLB AVERAGE MISS LATENCY PREFETCH: -nan cycles
STLB AVERAGE MSHR OCCUPANCY: 0.010043
STLB MSHR FULL: 0
STLB RQ	ACCESS:    4544167	FORWARD:          0	MERGED:          0	TO_CACHE:    4544167

STLB Hit, L1D data hit: 0
STLB Hit, L2C data hit: 0
STLB Hit, LLC data hit: 0
STLB Hit, LLC data miss: 0
STLB STLB hints to L2: 0
L0D SPEC fills:   28316097  NON-SPEC fills:          0
L0D TimeGuard Request with older TS:    1777724 Restricted eviction:     230469 read:    3558370
L0D Test counter :          0
L0D Leapfrog:          0
L0D MSHR merge:    3925657
L0D TOTAL     ACCESS:   52668049  HIT:   19228813  MISS:   33439236  HIT %:    36.5094  MISS %:    63.4906   MPKI: 167.196
L0D LOAD      TOTAL       ACCESS:   52668049  HIT:   19228813  MISS:   33439236  HIT %:    36.5094  MISS %:    63.4906   MPKI: 167.196
L0D LOAD      NON_SPEC    ACCESS:    5092108  HIT:     199438  MISS:    4892670  HIT %:    3.91661  MISS %:    96.0834   MPKI: 24.4633
L0D LOAD      SPEC        ACCESS:   47575941  HIT:   19029375  MISS:   28546566  HIT %:    39.9979  MISS %:    60.0021   MPKI: 142.733
L0D PREFETCH  REQUESTED:          0  ISSUED:          0  USEFUL:          0  USELESS:          0
L0D USEFUL LOAD PREFETCHES:          0 PREFETCH ISSUED TO LOWER LEVEL:          0  ACCURACY: -nan
L0D TIMELY PREFETCHES:          0 LATE PREFETCHES: 0 DROPPED PREFETCHES: 0
L0D COMMIT LATE PREFETCHES: 0 NORMAL LATE: 0 MISSED OPPORTUNITY: 0 UNCOVERED: 33439236
L0D PREFETCHES SAME FILL-ORIGIN LEVEL: 0 DIFFERENT FILL-ORIGIN LEVEL: 0
L0D AVERAGE MISS LATENCY: 29.7976 cycles
L0D AVERAGE MISS LATENCY LOAD: 29.7976 cycles
L0D AVERAGE MISS LATENCY PREFETCH: -nan cycles
L0D AVERAGE MSHR OCCUPANCY: 2.16514
L0D MSHR FULL: 0.0384932
L0D RQ	ACCESS:   76744544	FORWARD:          0	MERGED:   20150841	TO_CACHE:   56593703
L0D WQ	ACCESS:    2204915	FORWARD:          0	MERGED:          0	TO_CACHE:    2204915

L1D SPEC fills:          0  NON-SPEC fills:    1775451
L1D Test counter :          0
L1D Leapfrog:          0
L1D MSHR merge:      14698
L1D TOTAL     ACCESS:   82855087  HIT:   62520193  MISS:   20334894  HIT %:    75.4573  MISS %:    24.5427   MPKI: 101.674
L1D LOAD      TOTAL       ACCESS:   33424537  HIT:   22382419  MISS:   11042118  HIT %:     66.964  MISS %:     33.036   MPKI: 55.2106
L1D LOAD      NON_SPEC    ACCESS:    4891614  HIT:    3116163  MISS:    1775451  HIT %:    63.7042  MISS %:    36.2958   MPKI: 8.87725
L1D LOAD      SPEC        ACCESS:   28532923  HIT:   19266256  MISS:    9266667  HIT %:    67.5229  MISS %:    32.4771   MPKI: 46.3333
L1D RFO       NON_SPEC    ACCESS:    2021309  HIT:    1552601  MISS:     468708  HIT %:    76.8117  MISS %:    23.1883   MPKI: 2.34354
L1D COMMIT LOAD NON_SPEC    ACCESS:   20747993  HIT:   20417499  MISS:     330494  HIT %:    98.4071  MISS %:     1.5929   MPKI: 1.65247
L1D COMMIT WRITE NON_SPEC    ACCESS:   26661248  HIT:   18167674  MISS:    8493574  HIT %:    68.1426  MISS %:    31.8574   MPKI: 42.4679
L1D PREFETCH  REQUESTED:          0  ISSUED:          0  USEFUL:          0  USELESS:          0
L1D USEFUL LOAD PREFETCHES:          0 PREFETCH ISSUED TO LOWER LEVEL:          0  ACCURACY: -nan
L1D TIMELY PREFETCHES:          0 LATE PREFETCHES: 0 DROPPED PREFETCHES: 0
L1D COMMIT LATE PREFETCHES: 0 NORMAL LATE: 0 MISSED OPPORTUNITY: 0 UNCOVERED: 11042118
L1D PREFETCHES SAME FILL-ORIGIN LEVEL: 0 DIFFERENT FILL-ORIGIN LEVEL: 0
L1D AVERAGE MISS LATENCY: 43.3934 cycles
L1D AVERAGE MISS LATENCY LOAD: 74.3154 cycles
L1D AVERAGE MISS LATENCY PREFETCH: -nan cycles
L1D AVERAGE MSHR OCCUPANCY: 1.71481
L1D MSHR FULL: 0.0381811
L1D RQ	ACCESS:   78270121	FORWARD:          0	MERGED:   17712917	TO_CACHE:   54222500
L1D WQ	ACCESS:   28886930	FORWARD:    6334704	MERGED:      22409	TO_CACHE:   28864521

L1D UNIQUE REGIONS ACCESSED: 0
L1D REGIONS CONFLICTS: 0
L1D Cross Page Prefetch Requests: 0
L1D Same Page Prefetch Requests: 0
L1D ROI Sum of L1D PQ occupancy: 0
L1D PREFETCHES PUSHED FROM L2C: 0
L1I SPEC fills:          0  NON-SPEC fills:          0
L1I Test counter :          0
L1I Leapfrog:          0
L1I MSHR merge:          0
L1I TOTAL     ACCESS:   24889024  HIT:   24889024  MISS:          0  HIT %:        100  MISS %:          0   MPKI: 0
L1I LOAD      TOTAL       ACCESS:   24889024  HIT:   24889024  MISS:          0  HIT %:        100  MISS %:          0   MPKI: 0
L1I LOAD      NON_SPEC    ACCESS:   24889024  HIT:   24889024  MISS:          0  HIT %:        100  MISS %:          0   MPKI: 0
L1I PREFETCH  REQUESTED:          0  ISSUED:          0  USEFUL:          0  USELESS:          0
L1I USEFUL LOAD PREFETCHES:          0 PREFETCH ISSUED TO LOWER LEVEL:          0  ACCURACY: -nan
L1I TIMELY PREFETCHES:          0 LATE PREFETCHES: 0 DROPPED PREFETCHES: 0
L1I COMMIT LATE PREFETCHES: 0 NORMAL LATE: 0 MISSED OPPORTUNITY: 0 UNCOVERED: 0
L1I PREFETCHES SAME FILL-ORIGIN LEVEL: 0 DIFFERENT FILL-ORIGIN LEVEL: 0
L1I AVERAGE MISS LATENCY: -nan cycles
L1I AVERAGE MISS LATENCY LOAD: -nan cycles
L1I AVERAGE MISS LATENCY PREFETCH: -nan cycles
L1I AVERAGE MSHR OCCUPANCY: 0
L1I MSHR FULL: 0
L1I RQ	ACCESS:   38859174	FORWARD:          0	MERGED:   13970149	TO_CACHE:   24889025

BTB SPEC fills:          0  NON-SPEC fills:          0
BTB Test counter :          0
BTB Leapfrog:          0
BTB MSHR merge:          0
BTB TOTAL     ACCESS:   29073095  HIT:   29072932  MISS:        163  HIT %:    99.9994  MISS %: 0.000560656   MPKI: 0.000815
BTB BRANCH_DIRECT_JUMP	ACCESS:    9228469  HIT:    9228425  MISS:         44
BTB BRANCH_INDIRECT	ACCESS:          0  HIT:          0  MISS:          0
BTB BRANCH_CONDITIONAL	ACCESS:   19842028  HIT:   19841937  MISS:         91
BTB BRANCH_DIRECT_CALL	ACCESS:       1299  HIT:       1288  MISS:         11
BTB BRANCH_INDIRECT_CALL	ACCESS:          0  HIT:          0  MISS:          0
BTB BRANCH_RETURN	ACCESS:       1299  HIT:       1282  MISS:         17
BTB BRANCH_OTHER ACCESS:          0  HIT:          0  MISS:          0

L2C SPEC fills:          0  NON-SPEC fills:    1153852
L2C Test counter :          0
L2C Leapfrog:          0
L2C MSHR merge:     100221
L2C TOTAL     ACCESS:   24128794  HIT:    8971534  MISS:   15157260  HIT %:    37.1819  MISS %:    62.8181   MPKI: 75.7863
L2C LOAD      TOTAL       ACCESS:   11042092  HIT:    4149534  MISS:    6892558  HIT %:    37.5792  MISS %:    62.4208   MPKI: 34.4628
L2C LOAD      NON_SPEC    ACCESS:    1775448  HIT:     621596  MISS:    1153852  HIT %:    35.0107  MISS %:    64.9893   MPKI: 5.76926
L2C LOAD      SPEC        ACCESS:    9266644  HIT:    3527938  MISS:    5738706  HIT %:    38.0714  MISS %:    61.9286   MPKI: 28.6935
L2C RFO       NON_SPEC    ACCESS:     468685  HIT:     291277  MISS:     177408  HIT %:    62.1477  MISS %:    37.8523   MPKI: 0.88704
L2C PREFETCH  NON_SPEC    ACCESS:    2549056  HIT:     357610  MISS:    2191446  HIT %:    14.0291  MISS %:    85.9709   MPKI: 10.9572
L2C WRITEBACK NON_SPEC    ACCESS:     817157  HIT:     815712  MISS:       1445  HIT %:    99.8232  MISS %:   0.176833   MPKI: 0.007225
L2C CLEAN_EVICTION NON_SPEC    ACCESS:    8633639  HIT:    2866426  MISS:    5767213  HIT %:    33.2007  MISS %:    66.7993   MPKI: 28.8361
L2C COMMIT LOAD NON_SPEC    ACCESS:     330472  HIT:     246902  MISS:      83570  HIT %:    74.7119  MISS %:    25.2881   MPKI: 0.41785
L2C LOAD TRANSLATION NON_SPEC    ACCESS:     287693  HIT:     244073  MISS:      43620  HIT %:     84.838  MISS %:     15.162   MPKI: 0.2181
L2C PREFETCH  REQUESTED:    4188156  ISSUED:    4188145  USEFUL:    1215743  USELESS:     975981
L2C USEFUL LOAD PREFETCHES:    1215743 PREFETCH ISSUED TO LOWER LEVEL:    3668501  ACCURACY: 33.14
L2C TIMELY PREFETCHES:    1215743 LATE PREFETCHES: 100239 DROPPED PREFETCHES: 0
L2C COMMIT LATE PREFETCHES: 0 NORMAL LATE: 100239 MISSED OPPORTUNITY: 0 UNCOVERED: 6792319
L2C PREFETCHES SAME FILL-ORIGIN LEVEL: 2291686 DIFFERENT FILL-ORIGIN LEVEL: 1376815
L2C AVERAGE MISS LATENCY: 78.2445 cycles
L2C AVERAGE MISS LATENCY LOAD: 99.6824 cycles
L2C AVERAGE MISS LATENCY PREFETCH: 201.429 cycles
L2C AVERAGE MSHR OCCUPANCY: 2.36991
L2C MSHR FULL: 0
L2C RQ	ACCESS:   12129016	FORWARD:          0	MERGED:          0	TO_CACHE:   12128945
L2C WQ	ACCESS:    9451557	FORWARD:         72	MERGED:        760	TO_CACHE:    9450797
L2C PQ	ACCESS:    4188145	FORWARD:          0	MERGED:      20371	TO_CACHE:    4167773

L2C Instructions Evicting Data 0
L2C Translations Evicting Data 43380
L2C Data Evicting Data 3590597
L2C Instructions Evicting Instructions 0
L2C Translations Evicting Instructions 0
L2C Data Evicting Instructions 0
L2C Instructions Evicting Translations 0
L2C Translations Evicting Translations 240
L2C Data Evicting Translations 15679
L2C Dense regions hint from L2: 0
PSCL5 SPEC fills:          0  NON-SPEC fills:          0
PSCL5 Test counter :          0
PSCL5 Leapfrog:          0
PSCL5 MSHR merge:          0
PSCL5 TOTAL     ACCESS:          0  HIT:          0  MISS:          0  HIT %:       -nan  MISS %:       -nan   MPKI: 0
PSCL5 PREFETCH  REQUESTED:          0  ISSUED:          0  USEFUL:          0  USELESS:          0
PSCL5 USEFUL LOAD PREFETCHES:          0 PREFETCH ISSUED TO LOWER LEVEL:          0  ACCURACY: -nan
PSCL5 TIMELY PREFETCHES:          0 LATE PREFETCHES: 0 DROPPED PREFETCHES: 0
PSCL5 COMMIT LATE PREFETCHES: 0 NORMAL LATE: 0 MISSED OPPORTUNITY: 0 UNCOVERED: 0
PSCL5 PREFETCHES SAME FILL-ORIGIN LEVEL: 0 DIFFERENT FILL-ORIGIN LEVEL: 0

PSCL4 SPEC fills:          0  NON-SPEC fills:          0
PSCL4 Test counter :          0
PSCL4 Leapfrog:          0
PSCL4 MSHR merge:          0
PSCL4 TOTAL     ACCESS:          0  HIT:          0  MISS:          0  HIT %:       -nan  MISS %:       -nan   MPKI: 0
PSCL4 PREFETCH  REQUESTED:          0  ISSUED:          0  USEFUL:          0  USELESS:          0
PSCL4 USEFUL LOAD PREFETCHES:          0 PREFETCH ISSUED TO LOWER LEVEL:          0  ACCURACY: -nan
PSCL4 TIMELY PREFETCHES:          0 LATE PREFETCHES: 0 DROPPED PREFETCHES: 0
PSCL4 COMMIT LATE PREFETCHES: 0 NORMAL LATE: 0 MISSED OPPORTUNITY: 0 UNCOVERED: 0
PSCL4 PREFETCHES SAME FILL-ORIGIN LEVEL: 0 DIFFERENT FILL-ORIGIN LEVEL: 0

PSCL3 SPEC fills:          0  NON-SPEC fills:          0
PSCL3 Test counter :          0
PSCL3 Leapfrog:          0
PSCL3 MSHR merge:          0
PSCL3 TOTAL     ACCESS:          0  HIT:          0  MISS:          0  HIT %:       -nan  MISS %:       -nan   MPKI: 0
PSCL3 PREFETCH  REQUESTED:          0  ISSUED:          0  USEFUL:          0  USELESS:          0
PSCL3 USEFUL LOAD PREFETCHES:          0 PREFETCH ISSUED TO LOWER LEVEL:          0  ACCURACY: -nan
PSCL3 TIMELY PREFETCHES:          0 LATE PREFETCHES: 0 DROPPED PREFETCHES: 0
PSCL3 COMMIT LATE PREFETCHES: 0 NORMAL LATE: 0 MISSED OPPORTUNITY: 0 UNCOVERED: 0
PSCL3 PREFETCHES SAME FILL-ORIGIN LEVEL: 0 DIFFERENT FILL-ORIGIN LEVEL: 0

PSCL2 SPEC fills:          0  NON-SPEC fills:          0
PSCL2 Test counter :          0
PSCL2 Leapfrog:          0
PSCL2 MSHR merge:          0
PSCL2 TOTAL     ACCESS:          0  HIT:          0  MISS:          0  HIT %:       -nan  MISS %:       -nan   MPKI: 0
PSCL2 PREFETCH  REQUESTED:          0  ISSUED:          0  USEFUL:          0  USELESS:          0
PSCL2 USEFUL LOAD PREFETCHES:          0 PREFETCH ISSUED TO LOWER LEVEL:          0  ACCURACY: -nan
PSCL2 TIMELY PREFETCHES:          0 LATE PREFETCHES: 0 DROPPED PREFETCHES: 0
PSCL2 COMMIT LATE PREFETCHES: 0 NORMAL LATE: 0 MISSED OPPORTUNITY: 0 UNCOVERED: 0
PSCL2 PREFETCHES SAME FILL-ORIGIN LEVEL: 0 DIFFERENT FILL-ORIGIN LEVEL: 0

LLC SPEC fills:          0  NON-SPEC fills:     480523
LLC Test counter :          0
LLC Leapfrog:          0
LLC MSHR merge:      15803
LLC TOTAL     ACCESS:   18145592  HIT:    9381338  MISS:    8764254  HIT %:    51.7004  MISS %:    48.2996   MPKI: 43.8213
LLC LOAD      TOTAL       ACCESS:    6792292  HIT:    3856594  MISS:    2935698  HIT %:     56.779  MISS %:     43.221   MPKI: 14.6785
LLC LOAD      NON_SPEC    ACCESS:    1146297  HIT:     665774  MISS:     480523  HIT %:    58.0804  MISS %:    41.9196   MPKI: 2.40261
LLC LOAD      SPEC        ACCESS:    5645995  HIT:    3190820  MISS:    2455175  HIT %:    56.5148  MISS %:    43.4852   MPKI: 12.2759
LLC RFO       NON_SPEC    ACCESS:     177406  HIT:      72370  MISS:     105036  HIT %:    40.7934  MISS %:    59.2066   MPKI: 0.52518
LLC PREFETCH  NON_SPEC    ACCESS:    3643879  HIT:     921730  MISS:    2722149  HIT %:    25.2953  MISS %:    74.7047   MPKI: 13.6107
LLC WRITEBACK NON_SPEC    ACCESS:     306541  HIT:     297335  MISS:       9206  HIT %:    96.9968  MISS %:    3.00319   MPKI: 0.04603
LLC CLEAN_EVICTION NON_SPEC    ACCESS:    7098321  HIT:    4157057  MISS:    2941264  HIT %:    58.5639  MISS %:    41.4361   MPKI: 14.7063
LLC COMMIT LOAD NON_SPEC    ACCESS:      83533  HIT:      67349  MISS:      16184  HIT %:    80.6256  MISS %:    19.3744   MPKI: 0.08092
LLC LOAD TRANSLATION NON_SPEC    ACCESS:      43620  HIT:       8903  MISS:      34717  HIT %:    20.4104  MISS %:    79.5896   MPKI: 0.173585
LLC PREFETCH  REQUESTED:          0  ISSUED:          0  USEFUL:     315794  USELESS:    2406836
LLC USEFUL LOAD PREFETCHES:     315794 PREFETCH ISSUED TO LOWER LEVEL:    2737954  ACCURACY: 11.5339
LLC TIMELY PREFETCHES:     315794 LATE PREFETCHES: 15804 DROPPED PREFETCHES: 0
LLC COMMIT LATE PREFETCHES: 0 NORMAL LATE: 15804 MISSED OPPORTUNITY: 0 UNCOVERED: 2919894
LLC PREFETCHES SAME FILL-ORIGIN LEVEL: 816452 DIFFERENT FILL-ORIGIN LEVEL: 0
LLC AVERAGE MISS LATENCY: 128.36 cycles
LLC AVERAGE MISS LATENCY LOAD: 174.317 cycles
LLC AVERAGE MISS LATENCY PREFETCH: 207.536 cycles
LLC AVERAGE MSHR OCCUPANCY: 2.07995
LLC MSHR FULL: 0
LLC RQ	ACCESS:    7096919	FORWARD:          0	MERGED:          0	TO_CACHE:    7096853
LLC WQ	ACCESS:    7404863	FORWARD:         74	MERGED:          0	TO_CACHE:    7404863
LLC PQ	ACCESS:    3668501	FORWARD:          0	MERGED:       3436	TO_CACHE:    3665057

LLC Dense regions hint to LLC: 0

RAW hits: 61702
Loads Generated: 76806247
Loads sent to L1D: 76744544
Stores Generated: 2204913
Stores sent to L1D: 2204915
Major fault: 0 Minor fault: 36550
Allocated PAGES: 36550
Total Load insts: 93562023
Total Non-spec loads: 6328170
Percentage of speculative loads: 93.2364

LeapFrogging counter: 309209
Commit hits: 26682016 miss: 44830886
Commit hit %: 37.3108 miss %: 62.6892
Commits not translated: 0
Loads retired: 11042114
Stores retired: 2204915
Cache fills: 11042118
L1D response latency: 74.3154 cycles
Load retirement latency: 170.941 cycles
OOO test counter: 0
Discarded buffer inserts: 26682016 hits: 357047 hit %: 1.33816
Filter prediction accuracy: -nan
------------------
Depth Distribution
------------------
depth 0: 8288496
depth 1: 3479230
depth 2: 400879
depth 3: 421097
depth 4: 396092
depth 5: 219908
depth 6: 35453
depth 7: 11548
depth 8: 3731
depth 9: 1979
depth 10: 332
depth 11: 1324
depth 12: 731
depth 13: 160
depth 14: 425
depth 15: 1
depth 16: 0
depth 17: 0
depth 18: 0
depth 19: 0
depth 20: 0
depth 21: 0
depth 22: 0
depth 23: 0
depth 24: 0
depth 25: 0
depth 26: 0
depth 27: 0
depth 28: 0
depth 29: 0
Total: 13261386
------------------
ST read accesses: 7262959
ST write accesses: 3779135
PT read accesses: 107301822
PT write accesses: 7715756
FILTER read accesses: 44510394
FILTER write accesses: 30584658
GHR read accesses: 33083753
GHR write accesses: 377659
PERC read accesses: 664949448
PERC write accesses: 38796365
GHR counter read accesses: 22084188
GHR counter write accesses: 15869991
GHR ip read accesses: 62664315
GHR ip write accesses: 44168376
ST tag read accesses: 6178813371
ST tag write accesses: 1010061568

DRAM Statistics
 CHANNEL 0
 RQ ROW_BUFFER_HIT:     936568  ROW_BUFFER_MISS:    4875164
 DBUS_CONGESTED:       1949
 WQ ROW_BUFFER_HIT:    1836266  ROW_BUFFER_MISS:    2828058  FULL:      12700

 AVG_CONGESTED_CYCLE: 5
 All warmup complete: 2
Channel 0 Bank busy for read cycles: 0
Channel 0 Bank busy for write cycles: 0
Channel 0
Rank 0
0banks busy for read cycles: 2887451
0banks busy for write cycles: 13867
1banks busy for read cycles: 124403066
1banks busy for write cycles: 3516024
2banks busy for read cycles: 85830038
2banks busy for write cycles: 5003087
3banks busy for read cycles: 58346438
3banks busy for write cycles: 6674005
4banks busy for read cycles: 34209409
4banks busy for write cycles: 8871460
5banks busy for read cycles: 17228424
5banks busy for write cycles: 12114252
6banks busy for read cycles: 7616902
6banks busy for write cycles: 19103523
7banks busy for read cycles: 3392485
7banks busy for write cycles: 38799497
8banks busy for read cycles: 2681756
8banks busy for write cycles: 76022899

CPU 0 Branch Prediction Accuracy: 97.7925% MPKI: 3.28398 Average ROB Occupancy at Mispredict: 162.435
Branch types
NOT_BRANCH: 170247321 85.1237%
BRANCH_DIRECT_JUMP: 9228469 4.61423%
BRANCH_INDIRECT: 0 0%
BRANCH_CONDITIONAL: 20521450 10.2607%
BRANCH_DIRECT_CALL: 1299 0.0006495%
BRANCH_INDIRECT_CALL: 0 0%
BRANCH_RETURN: 1299 0.0006495%
BRANCH_OTHER: 0 0%

DRAM PAGES: 1048576
Allocated PAGES: 36550
