
*** ChampSim Multicore Out-of-Order Simulator ***

Warmup Instructions: 50000000
Simulation Instructions: 200000000
Number of CPUs: 1
LLC sets: 2048
LLC ways: 16
L0D sets: 16
L0D ways: 2
ROB size: 352
LQ size: 128
SQ size: 72
Secure Berti: ON
Berti: ON
Berti Fill: ON
On commit prefetching: OFF
Hit-based filter: ON
Time-guarding: ON
Free-slotting: ON
Leap-frogging: ON
Train prefetcher on L0D bypass: OFF
No translation penalty for prefetchers: OFF
Prefetch to L0D only: OFF
Prefetch to L1D only: OFF
Clean evictions: ON
Commit loads: ON
Commit write: ON
Fill commit loads to L2C, LLC: ON
DRAM IO FREQUENCY: 6400
ROB SIZE: 352
Off-chip DRAM Size: 4096 MB Channels: 1 Width: 64-bit Data Rate: 6400 MT/s
CPU 0 runs /home/sumon/secure_berti/GhostMinion/../../traces/spec/600.perlbench_s-570B.champsimtrace.xz
.xz
BTB has LRU replacement policy
ITLB has LRU replacement policy
DTLB has LRU replacement policy
STLB has LRU replacement policy
L1I has LRU replacement policy
L0D has LRU replacement policy
Berti version on_commit
History Sets: 8
History Ways: 16
BERTI Size: 16
BERTI Stride Size: 16
L1D has LRU replacement policy
L2C has LRU replacement policy
LLC has LRU replacement policy
Heartbeat CPU 0 instructions: 10000003 cycles: 3770987 heartbeat IPC: 2.65183 cumulative IPC: 2.65183 (Simulation time: 0 hr 1 min 12 sec) 
Heartbeat CPU 0 instructions: 20000000 cycles: 7477811 heartbeat IPC: 2.69773 cumulative IPC: 2.67458 (Simulation time: 0 hr 2 min 26 sec) 
Heartbeat CPU 0 instructions: 30000000 cycles: 11409730 heartbeat IPC: 2.54329 cumulative IPC: 2.62933 (Simulation time: 0 hr 3 min 44 sec) 
Heartbeat CPU 0 instructions: 40000002 cycles: 15306912 heartbeat IPC: 2.56596 cumulative IPC: 2.6132 (Simulation time: 0 hr 5 min 2 sec) 
Heartbeat CPU 0 instructions: 50000002 cycles: 18986037 heartbeat IPC: 2.71804 cumulative IPC: 2.63351 (Simulation time: 0 hr 6 min 19 sec) 

Warmup complete CPU 0 instructions: 50000002 cycles: 18986037 (Simulation time: 0 hr 6 min 19 sec) 

Heartbeat CPU 0 instructions: 60000000 cycles: 31948005 heartbeat IPC: 0.771488 cumulative IPC: 0.771488 (Simulation time: 0 hr 7 min 46 sec) 
Heartbeat CPU 0 instructions: 70000000 cycles: 52347164 heartbeat IPC: 0.490216 cumulative IPC: 0.5995 (Simulation time: 0 hr 9 min 18 sec) 
Heartbeat CPU 0 instructions: 80000002 cycles: 73621191 heartbeat IPC: 0.470057 cumulative IPC: 0.549097 (Simulation time: 0 hr 10 min 41 sec) 
Heartbeat CPU 0 instructions: 90000003 cycles: 99119579 heartbeat IPC: 0.392182 cumulative IPC: 0.499167 (Simulation time: 0 hr 12 min 6 sec) 
Heartbeat CPU 0 instructions: 100000002 cycles: 113181101 heartbeat IPC: 0.71116 cumulative IPC: 0.530813 (Simulation time: 0 hr 13 min 19 sec) 
Heartbeat CPU 0 instructions: 110000000 cycles: 127127431 heartbeat IPC: 0.717034 cumulative IPC: 0.554829 (Simulation time: 0 hr 14 min 33 sec) 
Heartbeat CPU 0 instructions: 120000003 cycles: 141816287 heartbeat IPC: 0.680788 cumulative IPC: 0.569892 (Simulation time: 0 hr 15 min 49 sec) 
Heartbeat CPU 0 instructions: 130000000 cycles: 156353976 heartbeat IPC: 0.687867 cumulative IPC: 0.582377 (Simulation time: 0 hr 17 min 5 sec) 
Heartbeat CPU 0 instructions: 140000003 cycles: 182188626 heartbeat IPC: 0.387077 cumulative IPC: 0.551462 (Simulation time: 0 hr 18 min 33 sec) 
Heartbeat CPU 0 instructions: 150000001 cycles: 206009281 heartbeat IPC: 0.419804 cumulative IPC: 0.534693 (Simulation time: 0 hr 20 min 2 sec) 
Heartbeat CPU 0 instructions: 160000001 cycles: 226238520 heartbeat IPC: 0.494334 cumulative IPC: 0.530754 (Simulation time: 0 hr 21 min 22 sec) 
Heartbeat CPU 0 instructions: 170000001 cycles: 241680859 heartbeat IPC: 0.64757 cumulative IPC: 0.538854 (Simulation time: 0 hr 22 min 48 sec) 
Heartbeat CPU 0 instructions: 180000000 cycles: 260824285 heartbeat IPC: 0.522372 cumulative IPC: 0.537549 (Simulation time: 0 hr 24 min 16 sec) 
Heartbeat CPU 0 instructions: 190000001 cycles: 286503536 heartbeat IPC: 0.389419 cumulative IPC: 0.52333 (Simulation time: 0 hr 25 min 42 sec) 
Heartbeat CPU 0 instructions: 200000001 cycles: 310763516 heartbeat IPC: 0.412201 cumulative IPC: 0.51409 (Simulation time: 0 hr 27 min 20 sec) 
Heartbeat CPU 0 instructions: 210000000 cycles: 329849853 heartbeat IPC: 0.523935 cumulative IPC: 0.514695 (Simulation time: 0 hr 28 min 59 sec) 
Heartbeat CPU 0 instructions: 220000000 cycles: 344549503 heartbeat IPC: 0.680288 cumulative IPC: 0.522172 (Simulation time: 0 hr 30 min 10 sec) 
Heartbeat CPU 0 instructions: 230000000 cycles: 358112667 heartbeat IPC: 0.737291 cumulative IPC: 0.530775 (Simulation time: 0 hr 31 min 47 sec) 
Heartbeat CPU 0 instructions: 240000002 cycles: 372538175 heartbeat IPC: 0.693217 cumulative IPC: 0.537403 (Simulation time: 0 hr 33 min 20 sec) 
Heartbeat CPU 0 instructions: 250000003 cycles: 387490124 heartbeat IPC: 0.668809 cumulative IPC: 0.542735 (Simulation time: 0 hr 34 min 47 sec) 
Finished CPU 0 instructions: 200000001 cycles: 368504087 cumulative IPC: 0.542735 (Simulation time: 0 hr 34 min 47 sec) 
 Instruction ID: 250000017

ChampSim completed all CPUs

Region of Interest Statistics

CPU 0 cumulative IPC: 0.542735 instructions: 200000001 cycles: 368504087
ITLB SPEC fills:          0  NON-SPEC fills:          0
ITLB Test counter :          0
ITLB Leapfrog:          0
ITLB MSHR merge:          0
ITLB TOTAL     ACCESS:   31176419  HIT:   31117548  MISS:      58871  HIT %:    99.8112  MISS %:   0.188832   MPKI: 0.294355
ITLB LOAD TRANSLATION NON_SPEC    ACCESS:   31176419  HIT:   31117548  MISS:      58871  HIT %:    99.8112  MISS %:   0.188832   MPKI: 0.294355
ITLB PREFETCH  REQUESTED:          0  ISSUED:          0  USEFUL:          0  USELESS:          0
ITLB USEFUL LOAD PREFETCHES:          0 PREFETCH ISSUED TO LOWER LEVEL:          0  ACCURACY: -nan
ITLB TIMELY PREFETCHES:          0 LATE PREFETCHES: 0 DROPPED PREFETCHES: 0
ITLB COMMIT LATE PREFETCHES: 0 MISSED OPPORTUNITY: 0 LATE IN PQ: 0 UNCOVERED: 0
ITLB COMMIT LATE MSHR PREFETCHES: 0
ITLB MPKI TOTAL: 0 MSHR LATE: 0 PQ LATE: 0 COMMIT LATE: 0 MISSED OPPORTUNITY: 0 UNCOVERED: 0
ITLB PREFETCHES SAME FILL-ORIGIN LEVEL: 0 DIFFERENT FILL-ORIGIN LEVEL: 0
ITLB AVERAGE MISS LATENCY: 10.7627 cycles
ITLB AVERAGE MISS LATENCY LOAD: -nan cycles
ITLB AVERAGE MISS LATENCY PREFETCH: -nan cycles
ITLB AVERAGE MSHR OCCUPANCY: 0.00104055
ITLB MSHR FULL: 0
ITLB RQ	ACCESS:   35142851	FORWARD:          0	MERGED:    3944869	TO_CACHE:   31197982

DTLB SPEC fills:          0  NON-SPEC fills:          0
DTLB Test counter :          0
DTLB Leapfrog:          0
DTLB MSHR merge:          0
DTLB TOTAL     ACCESS:   57156047  HIT:   56618201  MISS:     537846  HIT %:     99.059  MISS %:   0.941013   MPKI: 2.68923
DTLB LOAD TRANSLATION NON_SPEC    ACCESS:   57156047  HIT:   56618201  MISS:     537846  HIT %:     99.059  MISS %:   0.941013   MPKI: 2.68923
DTLB PREFETCH  REQUESTED:          0  ISSUED:          0  USEFUL:          0  USELESS:          0
DTLB USEFUL LOAD PREFETCHES:          0 PREFETCH ISSUED TO LOWER LEVEL:          0  ACCURACY: -nan
DTLB TIMELY PREFETCHES:          0 LATE PREFETCHES: 0 DROPPED PREFETCHES: 0
DTLB COMMIT LATE PREFETCHES: 0 MISSED OPPORTUNITY: 0 LATE IN PQ: 0 UNCOVERED: 0
DTLB COMMIT LATE MSHR PREFETCHES: 0
DTLB MPKI TOTAL: 0 MSHR LATE: 0 PQ LATE: 0 COMMIT LATE: 0 MISSED OPPORTUNITY: 0 UNCOVERED: 0
DTLB PREFETCHES SAME FILL-ORIGIN LEVEL: 0 DIFFERENT FILL-ORIGIN LEVEL: 0
DTLB AVERAGE MISS LATENCY: 14.7838 cycles
DTLB AVERAGE MISS LATENCY LOAD: -nan cycles
DTLB AVERAGE MISS LATENCY PREFETCH: -nan cycles
DTLB AVERAGE MSHR OCCUPANCY: 0.0133696
DTLB MSHR FULL: 1.41673e-06
DTLB RQ	ACCESS:   79014657	FORWARD:          0	MERGED:   21841004	TO_CACHE:   57173653

STLB SPEC fills:          0  NON-SPEC fills:          0
STLB Test counter :          0
STLB Leapfrog:          0
STLB MSHR merge:          0
STLB TOTAL     ACCESS:     882647  HIT:     858819  MISS:      23828  HIT %:    97.3004  MISS %:    2.69961   MPKI: 0.11914
STLB LOAD TRANSLATION NON_SPEC    ACCESS:     596717  HIT:     573269  MISS:      23448  HIT %:    96.0705  MISS %:     3.9295   MPKI: 0.11724
STLB TRANSLATION FROM L1D PREFETCHER NON_SPEC    ACCESS:     285930  HIT:     285550  MISS:        380  HIT %:    99.8671  MISS %:     0.1329   MPKI: 0.0019
STLB PREFETCH  REQUESTED:          0  ISSUED:          0  USEFUL:        337  USELESS:         43
STLB USEFUL LOAD PREFETCHES:        337 PREFETCH ISSUED TO LOWER LEVEL:          0  ACCURACY: inf
STLB TIMELY PREFETCHES:        337 LATE PREFETCHES: 8 DROPPED PREFETCHES: 4510
STLB COMMIT LATE PREFETCHES: 0 MISSED OPPORTUNITY: 0 LATE IN PQ: 0 UNCOVERED: 0
STLB COMMIT LATE MSHR PREFETCHES: 0
STLB MPKI TOTAL: 0 MSHR LATE: 4e-05 PQ LATE: 0 COMMIT LATE: 0 MISSED OPPORTUNITY: 0 UNCOVERED: 0
STLB PREFETCHES SAME FILL-ORIGIN LEVEL: 0 DIFFERENT FILL-ORIGIN LEVEL: 0
STLB AVERAGE MISS LATENCY: 135.617 cycles
STLB AVERAGE MISS LATENCY LOAD: -nan cycles
STLB AVERAGE MISS LATENCY PREFETCH: -nan cycles
STLB AVERAGE MSHR OCCUPANCY: 0.00736455
STLB MSHR FULL: 0
STLB RQ	ACCESS:    1214777	FORWARD:          0	MERGED:     327554	TO_CACHE:     887223

STLB Hit, L1D data hit: 0
STLB Hit, L2C data hit: 0
STLB Hit, LLC data hit: 0
STLB Hit, LLC data miss: 0
STLB STLB hints to L2: 0
L0D SPEC fills:   22335540  NON-SPEC fills:          0
L0D TimeGuard Request with older TS:      58806 Restricted eviction:      53522 read:      38589
L0D Test counter :          0
L0D Leapfrog:          0
L0D MSHR merge:     632379
L0D TOTAL     ACCESS:   38641645  HIT:    3377477  MISS:   35264168  HIT %:    8.74051  MISS %:    91.2595   MPKI: 176.321
L0D LOAD      TOTAL       ACCESS:   38641645  HIT:    3377477  MISS:   35264168  HIT %:    8.74051  MISS %:    91.2595   MPKI: 176.321
L0D LOAD      NON_SPEC    ACCESS:   13022935  HIT:     147820  MISS:   12875115  HIT %:    1.13507  MISS %:    98.8649   MPKI: 64.3756
L0D LOAD      SPEC        ACCESS:   25618710  HIT:    3229657  MISS:   22389053  HIT %:    12.6066  MISS %:    87.3934   MPKI: 111.945
L0D PREFETCH  REQUESTED:          0  ISSUED:          0  USEFUL:          0  USELESS:          0
L0D USEFUL LOAD PREFETCHES:          0 PREFETCH ISSUED TO LOWER LEVEL:          0  ACCURACY: -nan
L0D TIMELY PREFETCHES:          0 LATE PREFETCHES: 0 DROPPED PREFETCHES: 0
L0D COMMIT LATE PREFETCHES: 0 MISSED OPPORTUNITY: 0 LATE IN PQ: 0 UNCOVERED: 0
L0D COMMIT LATE MSHR PREFETCHES: 0
L0D MPKI TOTAL: 179.483 MSHR LATE: 0 PQ LATE: 0 COMMIT LATE: 0 MISSED OPPORTUNITY: 0 UNCOVERED: 0
L0D PREFETCHES SAME FILL-ORIGIN LEVEL: 0 DIFFERENT FILL-ORIGIN LEVEL: 0
L0D AVERAGE MISS LATENCY: 6.23274 cycles
L0D AVERAGE MISS LATENCY LOAD: 6.23274 cycles
L0D AVERAGE MISS LATENCY PREFETCH: -nan cycles
L0D AVERAGE MSHR OCCUPANCY: 0.58538
L0D MSHR FULL: 3.4883e-06
L0D RQ	ACCESS:   46797881	FORWARD:          0	MERGED:    7523862	TO_CACHE:   39274019
L0D WQ	ACCESS:   39740638	FORWARD:          0	MERGED:          0	TO_CACHE:   39740638

L1D SPEC fills:          0  NON-SPEC fills:     228183
L1D Test counter :     170226
L1D Leapfrog:          0
L1D MSHR merge:       2959
L1D TOTAL     ACCESS:   75399092  HIT:   74478808  MISS:     920284  HIT %:    98.7794  MISS %:    1.22055   MPKI: 4.60142
L1D LOAD      TOTAL       ACCESS:   35261302  HIT:   34714102  MISS:     547200  HIT %:    98.4482  MISS %:    1.55184   MPKI: 2.736
L1D LOAD      NON_SPEC    ACCESS:   12873224  HIT:   12645041  MISS:     228183  HIT %:    98.2275  MISS %:    1.77254   MPKI: 1.14091
L1D LOAD      SPEC        ACCESS:   22388078  HIT:   22069061  MISS:     319017  HIT %:    98.5751  MISS %:    1.42494   MPKI: 1.59508
L1D RFO       NON_SPEC    ACCESS:   39251350  HIT:   39203430  MISS:      47920  HIT %:    99.8779  MISS %:   0.122085   MPKI: 0.2396
L1D PREFETCH  NON_SPEC    ACCESS:     336017  HIT:     327423  MISS:       8594  HIT %:    97.4424  MISS %:    2.55761   MPKI: 0.04297
L1D COMMIT LOAD NON_SPEC    ACCESS:     221881  HIT:     220382  MISS:       1499  HIT %:    99.3244  MISS %:   0.675587   MPKI: 0.007495
L1D COMMIT WRITE NON_SPEC    ACCESS:     328542  HIT:      13471  MISS:     315071  HIT %:    4.10024  MISS %:    95.8998   MPKI: 1.57535
L1D PREFETCH  REQUESTED:     715307  ISSUED:     710396  USEFUL:       6137  USELESS:       2457
L1D USEFUL LOAD PREFETCHES:       6137 PREFETCH ISSUED TO LOWER LEVEL:     281308  ACCURACY: 2.18159
L1D TIMELY PREFETCHES:       6137 LATE PREFETCHES: 94 DROPPED PREFETCHES: 6345
L1D COMMIT LATE PREFETCHES: 0 MISSED OPPORTUNITY: 0 LATE IN PQ: 0 UNCOVERED: 0
L1D COMMIT LATE MSHR PREFETCHES: 0
L1D MPKI TOTAL: 2.75033 MSHR LATE: 0.00047 PQ LATE: 0 COMMIT LATE: 0 MISSED OPPORTUNITY: 0 UNCOVERED: 0
L1D PREFETCHES SAME FILL-ORIGIN LEVEL: 8689 DIFFERENT FILL-ORIGIN LEVEL: 272619
L1D AVERAGE MISS LATENCY: 44.7355 cycles
L1D AVERAGE MISS LATENCY LOAD: 69.3941 cycles
L1D AVERAGE MISS LATENCY PREFETCH: 63.5234 cycles
L1D AVERAGE MSHR OCCUPANCY: 0.0212506
L1D MSHR FULL: 1.66261e-05
L1D RQ	ACCESS:   35557037	FORWARD:          0	MERGED:      61008	TO_CACHE:   35486138
L1D WQ	ACCESS:   40069225	FORWARD:       9891	MERGED:     395092	TO_CACHE:   39674133
L1D PQ	ACCESS:     710396	FORWARD:          0	MERGED:      92336	TO_CACHE:     618060

L1D UNIQUE REGIONS ACCESSED: 0
L1D REGIONS CONFLICTS: 0
L1D Cross Page Prefetch Requests: 55374
L1D Same Page Prefetch Requests: 735851
L1D ROI Sum of L1D PQ occupancy: 10114616
L1D PREFETCHES PUSHED FROM L2C: 0
L1I SPEC fills:          0  NON-SPEC fills:          0
L1I Test counter :          0
L1I Leapfrog:          0
L1I MSHR merge:     219603
L1I TOTAL     ACCESS:   34923248  HIT:   34048897  MISS:     874351  HIT %:    97.4964  MISS %:    2.50364   MPKI: 4.37175
L1I LOAD      TOTAL       ACCESS:   34923248  HIT:   34048897  MISS:     874351  HIT %:    97.4964  MISS %:    2.50364   MPKI: 4.37175
L1I LOAD      NON_SPEC    ACCESS:   34923248  HIT:   34048897  MISS:     874351  HIT %:    97.4964  MISS %:    2.50364   MPKI: 4.37175
L1I PREFETCH  REQUESTED:          0  ISSUED:          0  USEFUL:          0  USELESS:          0
L1I USEFUL LOAD PREFETCHES:          0 PREFETCH ISSUED TO LOWER LEVEL:          0  ACCURACY: -nan
L1I TIMELY PREFETCHES:          0 LATE PREFETCHES: 0 DROPPED PREFETCHES: 0
L1I COMMIT LATE PREFETCHES: 0 MISSED OPPORTUNITY: 0 LATE IN PQ: 0 UNCOVERED: 0
L1I COMMIT LATE MSHR PREFETCHES: 0
L1I MPKI TOTAL: 5.46977 MSHR LATE: 0 PQ LATE: 0 COMMIT LATE: 0 MISSED OPPORTUNITY: 0 UNCOVERED: 0
L1I PREFETCHES SAME FILL-ORIGIN LEVEL: 0 DIFFERENT FILL-ORIGIN LEVEL: 0
L1I AVERAGE MISS LATENCY: 17.5605 cycles
L1I AVERAGE MISS LATENCY LOAD: 17.5605 cycles
L1I AVERAGE MISS LATENCY PREFETCH: -nan cycles
L1I AVERAGE MSHR OCCUPANCY: 0.0330459
L1I MSHR FULL: 0
L1I RQ	ACCESS:   55988061	FORWARD:          0	MERGED:   20845210	TO_CACHE:   35142851

BTB SPEC fills:          0  NON-SPEC fills:          0
BTB Test counter :          0
BTB Leapfrog:          0
BTB MSHR merge:          0
BTB TOTAL     ACCESS:   25984963  HIT:   24489037  MISS:    1495926  HIT %:    94.2431  MISS %:    5.75689   MPKI: 7.47963
BTB BRANCH_DIRECT_JUMP	ACCESS:    4141047  HIT:    4130444  MISS:      10603
BTB BRANCH_INDIRECT	ACCESS:    1274734  HIT:     405661  MISS:     869073
BTB BRANCH_CONDITIONAL	ACCESS:   16683297  HIT:   16654181  MISS:      29116
BTB BRANCH_DIRECT_CALL	ACCESS:    1551808  HIT:    1544398  MISS:       7410
BTB BRANCH_INDIRECT_CALL	ACCESS:     391135  HIT:      53393  MISS:     337742
BTB BRANCH_RETURN	ACCESS:    1942942  HIT:    1700960  MISS:     241982
BTB BRANCH_OTHER ACCESS:          0  HIT:          0  MISS:          0

L2C SPEC fills:          0  NON-SPEC fills:     104101
L2C Test counter :     120863
L2C Leapfrog:          0
L2C MSHR merge:       1165
L2C TOTAL     ACCESS:    2136153  HIT:    1691083  MISS:     445070  HIT %:    79.1649  MISS %:    20.8351   MPKI: 2.22535
L2C LOAD      TOTAL       ACCESS:    1421446  HIT:    1165465  MISS:     255981  HIT %:    81.9915  MISS %:    18.0085   MPKI: 1.2799
L2C LOAD      NON_SPEC    ACCESS:    1102494  HIT:     963773  MISS:     138721  HIT %:    87.4175  MISS %:    12.5825   MPKI: 0.693605
L2C LOAD      SPEC        ACCESS:     318952  HIT:     201692  MISS:     117260  HIT %:    63.2358  MISS %:    36.7642   MPKI: 0.5863
L2C RFO       NON_SPEC    ACCESS:      47910  HIT:      33824  MISS:      14086  HIT %:     70.599  MISS %:     29.401   MPKI: 0.07043
L2C PREFETCH  NON_SPEC    ACCESS:     276526  HIT:     231794  MISS:      44732  HIT %:    83.8236  MISS %:    16.1764   MPKI: 0.22366
L2C WRITEBACK NON_SPEC    ACCESS:      76891  HIT:      76463  MISS:        428  HIT %:    99.4434  MISS %:   0.556632   MPKI: 0.00214
L2C CLEAN_EVICTION NON_SPEC    ACCESS:     170226  HIT:      52420  MISS:     117806  HIT %:    30.7944  MISS %:    69.2056   MPKI: 0.58903
L2C COMMIT LOAD NON_SPEC    ACCESS:       1498  HIT:       1284  MISS:        214  HIT %:    85.7143  MISS %:    14.2857   MPKI: 0.00107
L2C LOAD TRANSLATION NON_SPEC    ACCESS:     117166  HIT:     105624  MISS:      11542  HIT %:     90.149  MISS %:    9.85098   MPKI: 0.05771
L2C TRANSLATION FROM L1D PREFETCHER NON_SPEC    ACCESS:      24490  HIT:      24209  MISS:        281  HIT %:    98.8526  MISS %:    1.14741   MPKI: 0.001405
L2C PREFETCH  REQUESTED:          0  ISSUED:          0  USEFUL:      14847  USELESS:      30090
L2C USEFUL LOAD PREFETCHES:      14847 PREFETCH ISSUED TO LOWER LEVEL:      45900  ACCURACY: 32.3464
L2C TIMELY PREFETCHES:      14847 LATE PREFETCHES: 1168 DROPPED PREFETCHES: 0
L2C COMMIT LATE PREFETCHES: 0 MISSED OPPORTUNITY: 0 LATE IN PQ: 0 UNCOVERED: 0
L2C COMMIT LATE MSHR PREFETCHES: 0
L2C MPKI TOTAL: 1.2799 MSHR LATE: 0.00584 PQ LATE: 0 COMMIT LATE: 0 MISSED OPPORTUNITY: 0 UNCOVERED: 0
L2C PREFETCHES SAME FILL-ORIGIN LEVEL: 43485 DIFFERENT FILL-ORIGIN LEVEL: 0
L2C AVERAGE MISS LATENCY: 99.7522 cycles
L2C AVERAGE MISS LATENCY LOAD: 133.224 cycles
L2C AVERAGE MISS LATENCY PREFETCH: 160.502 cycles
L2C AVERAGE MSHR OCCUPANCY: 0.151941
L2C MSHR FULL: 0
L2C RQ	ACCESS:    1612531	FORWARD:          0	MERGED:          0	TO_CACHE:    1612510
L2C WQ	ACCESS:     247117	FORWARD:         21	MERGED:          0	TO_CACHE:     247117
L2C PQ	ACCESS:     281308	FORWARD:          0	MERGED:         14	TO_CACHE:     281294

L2C Instructions Evicting Data 28866
L2C Translations Evicting Data 10020
L2C Data Evicting Data 138468
L2C Instructions Evicting Instructions 4028
L2C Translations Evicting Instructions 1320
L2C Data Evicting Instructions 17666
L2C Instructions Evicting Translations 1375
L2C Translations Evicting Translations 360
L2C Data Evicting Translations 5835
L2C Dense regions hint from L2: 0
PSCL5 SPEC fills:          0  NON-SPEC fills:          0
PSCL5 Test counter :          0
PSCL5 Leapfrog:          0
PSCL5 MSHR merge:          0
PSCL5 TOTAL     ACCESS:          0  HIT:          0  MISS:          0  HIT %:       -nan  MISS %:       -nan   MPKI: 0
PSCL5 PREFETCH  REQUESTED:          0  ISSUED:          0  USEFUL:          0  USELESS:          0
PSCL5 USEFUL LOAD PREFETCHES:          0 PREFETCH ISSUED TO LOWER LEVEL:          0  ACCURACY: -nan
PSCL5 TIMELY PREFETCHES:          0 LATE PREFETCHES: 0 DROPPED PREFETCHES: 0
PSCL5 COMMIT LATE PREFETCHES: 0 MISSED OPPORTUNITY: 0 LATE IN PQ: 0 UNCOVERED: 0
PSCL5 COMMIT LATE MSHR PREFETCHES: 0
PSCL5 MPKI TOTAL: 0 MSHR LATE: 0 PQ LATE: 0 COMMIT LATE: 0 MISSED OPPORTUNITY: 0 UNCOVERED: 0
PSCL5 PREFETCHES SAME FILL-ORIGIN LEVEL: 0 DIFFERENT FILL-ORIGIN LEVEL: 0

PSCL4 SPEC fills:          0  NON-SPEC fills:          0
PSCL4 Test counter :          0
PSCL4 Leapfrog:          0
PSCL4 MSHR merge:          0
PSCL4 TOTAL     ACCESS:          0  HIT:          0  MISS:          0  HIT %:       -nan  MISS %:       -nan   MPKI: 0
PSCL4 PREFETCH  REQUESTED:          0  ISSUED:          0  USEFUL:          0  USELESS:          0
PSCL4 USEFUL LOAD PREFETCHES:          0 PREFETCH ISSUED TO LOWER LEVEL:          0  ACCURACY: -nan
PSCL4 TIMELY PREFETCHES:          0 LATE PREFETCHES: 0 DROPPED PREFETCHES: 0
PSCL4 COMMIT LATE PREFETCHES: 0 MISSED OPPORTUNITY: 0 LATE IN PQ: 0 UNCOVERED: 0
PSCL4 COMMIT LATE MSHR PREFETCHES: 0
PSCL4 MPKI TOTAL: 0 MSHR LATE: 0 PQ LATE: 0 COMMIT LATE: 0 MISSED OPPORTUNITY: 0 UNCOVERED: 0
PSCL4 PREFETCHES SAME FILL-ORIGIN LEVEL: 0 DIFFERENT FILL-ORIGIN LEVEL: 0

PSCL3 SPEC fills:          0  NON-SPEC fills:          0
PSCL3 Test counter :          0
PSCL3 Leapfrog:          0
PSCL3 MSHR merge:          0
PSCL3 TOTAL     ACCESS:          0  HIT:          0  MISS:          0  HIT %:       -nan  MISS %:       -nan   MPKI: 0
PSCL3 PREFETCH  REQUESTED:          0  ISSUED:          0  USEFUL:          0  USELESS:          0
PSCL3 USEFUL LOAD PREFETCHES:          0 PREFETCH ISSUED TO LOWER LEVEL:          0  ACCURACY: -nan
PSCL3 TIMELY PREFETCHES:          0 LATE PREFETCHES: 0 DROPPED PREFETCHES: 0
PSCL3 COMMIT LATE PREFETCHES: 0 MISSED OPPORTUNITY: 0 LATE IN PQ: 0 UNCOVERED: 0
PSCL3 COMMIT LATE MSHR PREFETCHES: 0
PSCL3 MPKI TOTAL: 0 MSHR LATE: 0 PQ LATE: 0 COMMIT LATE: 0 MISSED OPPORTUNITY: 0 UNCOVERED: 0
PSCL3 PREFETCHES SAME FILL-ORIGIN LEVEL: 0 DIFFERENT FILL-ORIGIN LEVEL: 0

PSCL2 SPEC fills:          0  NON-SPEC fills:          0
PSCL2 Test counter :          0
PSCL2 Leapfrog:          0
PSCL2 MSHR merge:          0
PSCL2 TOTAL     ACCESS:          0  HIT:          0  MISS:          0  HIT %:       -nan  MISS %:       -nan   MPKI: 0
PSCL2 PREFETCH  REQUESTED:          0  ISSUED:          0  USEFUL:          0  USELESS:          0
PSCL2 USEFUL LOAD PREFETCHES:          0 PREFETCH ISSUED TO LOWER LEVEL:          0  ACCURACY: -nan
PSCL2 TIMELY PREFETCHES:          0 LATE PREFETCHES: 0 DROPPED PREFETCHES: 0
PSCL2 COMMIT LATE PREFETCHES: 0 MISSED OPPORTUNITY: 0 LATE IN PQ: 0 UNCOVERED: 0
PSCL2 COMMIT LATE MSHR PREFETCHES: 0
PSCL2 MPKI TOTAL: 0 MSHR LATE: 0 PQ LATE: 0 COMMIT LATE: 0 MISSED OPPORTUNITY: 0 UNCOVERED: 0
PSCL2 PREFETCHES SAME FILL-ORIGIN LEVEL: 0 DIFFERENT FILL-ORIGIN LEVEL: 0

LLC SPEC fills:          0  NON-SPEC fills:      88213
LLC Test counter :      82555
LLC Leapfrog:          0
LLC MSHR merge:          0
LLC TOTAL     ACCESS:     473655  HIT:     138136  MISS:     335519  HIT %:    29.1638  MISS %:    70.8362   MPKI: 1.67759
LLC LOAD      TOTAL       ACCESS:     254815  HIT:      64993  MISS:     189822  HIT %:     25.506  MISS %:     74.494   MPKI: 0.94911
LLC LOAD      NON_SPEC    ACCESS:     138092  HIT:      36845  MISS:     101247  HIT %:    26.6815  MISS %:    73.3185   MPKI: 0.506235
LLC LOAD      SPEC        ACCESS:     116723  HIT:      28148  MISS:      88575  HIT %:    24.1152  MISS %:    75.8848   MPKI: 0.442875
LLC RFO       NON_SPEC    ACCESS:      14083  HIT:       4354  MISS:       9729  HIT %:    30.9167  MISS %:    69.0833   MPKI: 0.048645
LLC PREFETCH  NON_SPEC    ACCESS:      45900  HIT:       6098  MISS:      39802  HIT %:    13.2854  MISS %:    86.7146   MPKI: 0.19901
LLC WRITEBACK NON_SPEC    ACCESS:      25957  HIT:      25654  MISS:        303  HIT %:    98.8327  MISS %:    1.16732   MPKI: 0.001515
LLC CLEAN_EVICTION NON_SPEC    ACCESS:     120863  HIT:      30094  MISS:      90769  HIT %:    24.8993  MISS %:    75.1007   MPKI: 0.453845
LLC COMMIT LOAD NON_SPEC    ACCESS:        214  HIT:        118  MISS:         96  HIT %:    55.1402  MISS %:    44.8598   MPKI: 0.00048
LLC LOAD TRANSLATION NON_SPEC    ACCESS:      11542  HIT:       6674  MISS:       4868  HIT %:    57.8236  MISS %:    42.1764   MPKI: 0.02434
LLC TRANSLATION FROM L1D PREFETCHER NON_SPEC    ACCESS:        281  HIT:        151  MISS:        130  HIT %:    53.7367  MISS %:    46.2633   MPKI: 0.00065
LLC PREFETCH  REQUESTED:          0  ISSUED:          0  USEFUL:       1337  USELESS:      35208
LLC USEFUL LOAD PREFETCHES:       1337 PREFETCH ISSUED TO LOWER LEVEL:      39802  ACCURACY: 3.35913
LLC TIMELY PREFETCHES:       1337 LATE PREFETCHES: 0 DROPPED PREFETCHES: 0
LLC COMMIT LATE PREFETCHES: 0 MISSED OPPORTUNITY: 0 LATE IN PQ: 0 UNCOVERED: 0
LLC COMMIT LATE MSHR PREFETCHES: 0
LLC MPKI TOTAL: 0.94911 MSHR LATE: 0 PQ LATE: 0 COMMIT LATE: 0 MISSED OPPORTUNITY: 0 UNCOVERED: 0
LLC PREFETCHES SAME FILL-ORIGIN LEVEL: 0 DIFFERENT FILL-ORIGIN LEVEL: 0
LLC AVERAGE MISS LATENCY: 106.404 cycles
LLC AVERAGE MISS LATENCY LOAD: 144.208 cycles
LLC AVERAGE MISS LATENCY PREFETCH: 150.68 cycles
LLC AVERAGE MSHR OCCUPANCY: 0.264317
LLC MSHR FULL: 0
LLC RQ	ACCESS:     280936	FORWARD:          0	MERGED:          0	TO_CACHE:     280935
LLC WQ	ACCESS:     146820	FORWARD:          1	MERGED:          0	TO_CACHE:     146820
LLC PQ	ACCESS:      45900	FORWARD:          0	MERGED:          0	TO_CACHE:      45900

LLC Dense regions hint to LLC: 0

RAW hits: 3033354
Loads Generated: 49831234
Loads sent to L1D: 46797881
Stores Generated: 39740622
Stores sent to L1D: 39740638
Major fault: 0 Minor fault: 5924
Allocated PAGES: 5924
Total Load insts: 55954405
Total Non-spec loads: 13941007
Percentage of speculative loads: 75.0851

LeapFrogging counter: 81
Commit hits: 22307874 miss: 11439869
Commit hit %: 66.1018 miss %: 33.8982
Commits not translated: 0
Loads retired: 547200
Stores retired: 39740638
Cache fills: 547200
L1D response latency: 69.3941 cycles
Load retirement latency: 102.044 cycles
OOO test counter: 0
Discarded buffer inserts: 22307874 hits: 4452 hit %: 0.0199571
Filter prediction accuracy: 99.9667
ALL MISSES SIZE: 4685
LATENCY_FILL: 69.3455 549476
LATENCY_FILL_ROB: 87.3152 549304
test counter pref: 2315024
Max ROB Extended: 16

DRAM Statistics
 CHANNEL 0
 RQ ROW_BUFFER_HIT:      47694  ROW_BUFFER_MISS:     196753
 DBUS_CONGESTED:        129
 WQ ROW_BUFFER_HIT:      23819  ROW_BUFFER_MISS:      74816  FULL:          0

 AVG_CONGESTED_CYCLE: 4
 All warmup complete: 2
Channel 0 Bank busy for read cycles: 0
Channel 0 Bank busy for write cycles: 0
Channel 0
Rank 0
0banks busy for read cycles: 328287553
0banks busy for write cycles: 56720
1banks busy for read cycles: 22664878
1banks busy for write cycles: 9920395
2banks busy for read cycles: 3049224
2banks busy for write cycles: 2340543
3banks busy for read cycles: 604672
3banks busy for write cycles: 701901
4banks busy for read cycles: 148433
4banks busy for write cycles: 301252
5banks busy for read cycles: 64096
5banks busy for write cycles: 145421
6banks busy for read cycles: 34034
6banks busy for write cycles: 88035
7banks busy for read cycles: 17768
7banks busy for write cycles: 49275
8banks busy for read cycles: 9764
8banks busy for write cycles: 20124

CPU 0 Branch Prediction Accuracy: 99.0693% MPKI: 1.53431 Average ROB Occupancy at Mispredict: 50.396
Branch types
NOT_BRANCH: 167028092 83.514%
BRANCH_DIRECT_JUMP: 4141047 2.07052%
BRANCH_INDIRECT: 1274734 0.637367%
BRANCH_CONDITIONAL: 23669876 11.8349%
BRANCH_DIRECT_CALL: 1551808 0.775904%
BRANCH_INDIRECT_CALL: 391135 0.195567%
BRANCH_RETURN: 1942942 0.971471%
BRANCH_OTHER: 0 0%

DRAM PAGES: 1048576
Allocated PAGES: 5924
