
*** ChampSim Multicore Out-of-Order Simulator ***

Warmup Instructions: 50000000
Simulation Instructions: 200000000
Number of CPUs: 1
LLC sets: 2048
LLC ways: 16
L0D sets: 16
L0D ways: 2
ROB size: 352
LQ size: 128
SQ size: 72
Secure Berti: ON
Berti: ON
Berti Fill: ON
On commit prefetching: OFF
Hit-based filter: ON
Time-guarding: ON
Free-slotting: ON
Leap-frogging: ON
Train prefetcher on L0D bypass: OFF
No translation penalty for prefetchers: OFF
Prefetch to L0D only: OFF
Prefetch to L1D only: OFF
Clean evictions: ON
Commit loads: ON
Commit write: ON
Fill commit loads to L2C, LLC: ON
DRAM IO FREQUENCY: 6400
ROB SIZE: 352
Off-chip DRAM Size: 4096 MB Channels: 1 Width: 64-bit Data Rate: 6400 MT/s
CPU 0 runs /home/sumon/secure_berti/GhostMinion/../../traces/spec/603.bwaves_s-891B.champsimtrace.xz
.xz
BTB has LRU replacement policy
ITLB has LRU replacement policy
DTLB has LRU replacement policy
STLB has LRU replacement policy
L1I has LRU replacement policy
L0D has LRU replacement policy
Berti version on_commit
History Sets: 8
History Ways: 16
BERTI Size: 16
BERTI Stride Size: 16
L1D has LRU replacement policy
L2C has LRU replacement policy
LLC has LRU replacement policy
Heartbeat CPU 0 instructions: 10000003 cycles: 2783686 heartbeat IPC: 3.59236 cumulative IPC: 3.59236 (Simulation time: 0 hr 1 min 12 sec) 
Heartbeat CPU 0 instructions: 20000003 cycles: 5567630 heartbeat IPC: 3.59203 cumulative IPC: 3.59219 (Simulation time: 0 hr 2 min 25 sec) 
Heartbeat CPU 0 instructions: 30000003 cycles: 8351504 heartbeat IPC: 3.59212 cumulative IPC: 3.59217 (Simulation time: 0 hr 3 min 40 sec) 
Heartbeat CPU 0 instructions: 40000000 cycles: 11135164 heartbeat IPC: 3.59239 cumulative IPC: 3.59222 (Simulation time: 0 hr 5 min 2 sec) 
Heartbeat CPU 0 instructions: 50000002 cycles: 14072123 heartbeat IPC: 3.40488 cumulative IPC: 3.55312 (Simulation time: 0 hr 6 min 7 sec) 

Warmup complete CPU 0 instructions: 50000002 cycles: 14072123 (Simulation time: 0 hr 6 min 7 sec) 

Heartbeat CPU 0 instructions: 60000002 cycles: 27827248 heartbeat IPC: 0.727002 cumulative IPC: 0.727002 (Simulation time: 0 hr 7 min 26 sec) 
Heartbeat CPU 0 instructions: 70000001 cycles: 41583057 heartbeat IPC: 0.726966 cumulative IPC: 0.726984 (Simulation time: 0 hr 8 min 44 sec) 
Heartbeat CPU 0 instructions: 80000000 cycles: 55339075 heartbeat IPC: 0.726954 cumulative IPC: 0.726974 (Simulation time: 0 hr 10 min 1 sec) 
Heartbeat CPU 0 instructions: 90000001 cycles: 69095827 heartbeat IPC: 0.726916 cumulative IPC: 0.726959 (Simulation time: 0 hr 11 min 20 sec) 
Heartbeat CPU 0 instructions: 100000000 cycles: 82851268 heartbeat IPC: 0.726985 cumulative IPC: 0.726965 (Simulation time: 0 hr 12 min 41 sec) 
Heartbeat CPU 0 instructions: 110000000 cycles: 96607851 heartbeat IPC: 0.726925 cumulative IPC: 0.726958 (Simulation time: 0 hr 14 min 0 sec) 
Heartbeat CPU 0 instructions: 120000001 cycles: 110364101 heartbeat IPC: 0.726942 cumulative IPC: 0.726956 (Simulation time: 0 hr 15 min 19 sec) 
Heartbeat CPU 0 instructions: 130000000 cycles: 124119486 heartbeat IPC: 0.726988 cumulative IPC: 0.72696 (Simulation time: 0 hr 16 min 37 sec) 
Heartbeat CPU 0 instructions: 140000001 cycles: 137876067 heartbeat IPC: 0.726925 cumulative IPC: 0.726956 (Simulation time: 0 hr 17 min 54 sec) 
Heartbeat CPU 0 instructions: 150000000 cycles: 151632181 heartbeat IPC: 0.726949 cumulative IPC: 0.726955 (Simulation time: 0 hr 19 min 9 sec) 
Heartbeat CPU 0 instructions: 160000000 cycles: 165388736 heartbeat IPC: 0.726926 cumulative IPC: 0.726953 (Simulation time: 0 hr 20 min 26 sec) 
Heartbeat CPU 0 instructions: 170000000 cycles: 179065404 heartbeat IPC: 0.731172 cumulative IPC: 0.727302 (Simulation time: 0 hr 21 min 50 sec) 
Heartbeat CPU 0 instructions: 180000001 cycles: 192583334 heartbeat IPC: 0.739758 cumulative IPC: 0.728246 (Simulation time: 0 hr 23 min 14 sec) 
Heartbeat CPU 0 instructions: 190000002 cycles: 205500232 heartbeat IPC: 0.77418 cumulative IPC: 0.731345 (Simulation time: 0 hr 24 min 47 sec) 
Heartbeat CPU 0 instructions: 200000003 cycles: 217707613 heartbeat IPC: 0.819177 cumulative IPC: 0.73661 (Simulation time: 0 hr 26 min 36 sec) 
Heartbeat CPU 0 instructions: 210000001 cycles: 229914188 heartbeat IPC: 0.81923 cumulative IPC: 0.741283 (Simulation time: 0 hr 28 min 28 sec) 
Heartbeat CPU 0 instructions: 220000000 cycles: 242120893 heartbeat IPC: 0.819222 cumulative IPC: 0.745455 (Simulation time: 0 hr 30 min 19 sec) 
Heartbeat CPU 0 instructions: 230000001 cycles: 254327658 heartbeat IPC: 0.819218 cumulative IPC: 0.749202 (Simulation time: 0 hr 32 min 9 sec) 
Heartbeat CPU 0 instructions: 240000000 cycles: 266534358 heartbeat IPC: 0.819222 cumulative IPC: 0.752588 (Simulation time: 0 hr 33 min 52 sec) 
Heartbeat CPU 0 instructions: 250000001 cycles: 278741094 heartbeat IPC: 0.81922 cumulative IPC: 0.755661 (Simulation time: 0 hr 35 min 11 sec) 
Finished CPU 0 instructions: 200000002 cycles: 264668972 cumulative IPC: 0.755661 (Simulation time: 0 hr 35 min 11 sec) 
 Instruction ID: 250000030

ChampSim completed all CPUs

Region of Interest Statistics

CPU 0 cumulative IPC: 0.755661 instructions: 200000002 cycles: 264668972
ITLB SPEC fills:          0  NON-SPEC fills:          0
ITLB Test counter :          0
ITLB Leapfrog:          0
ITLB MSHR merge:          0
ITLB TOTAL     ACCESS:   33459786  HIT:   33459785  MISS:          1  HIT %:        100  MISS %: 2.98866e-06   MPKI: 5e-06
ITLB LOAD TRANSLATION NON_SPEC    ACCESS:   33459786  HIT:   33459785  MISS:          1  HIT %:        100  MISS %: 2.98866e-06   MPKI: 5e-06
ITLB PREFETCH  REQUESTED:          0  ISSUED:          0  USEFUL:          0  USELESS:          0
ITLB USEFUL LOAD PREFETCHES:          0 PREFETCH ISSUED TO LOWER LEVEL:          0  ACCURACY: -nan
ITLB TIMELY PREFETCHES:          0 LATE PREFETCHES: 0 DROPPED PREFETCHES: 0
ITLB COMMIT LATE PREFETCHES: 0 MISSED OPPORTUNITY: 0 LATE IN PQ: 0 UNCOVERED: 0
ITLB COMMIT LATE MSHR PREFETCHES: 0
ITLB MPKI TOTAL: 0 MSHR LATE: 0 PQ LATE: 0 COMMIT LATE: 0 MISSED OPPORTUNITY: 0 UNCOVERED: 0
ITLB PREFETCHES SAME FILL-ORIGIN LEVEL: 0 DIFFERENT FILL-ORIGIN LEVEL: 0
ITLB AVERAGE MISS LATENCY: 964 cycles
ITLB AVERAGE MISS LATENCY LOAD: -nan cycles
ITLB AVERAGE MISS LATENCY PREFETCH: -nan cycles
ITLB AVERAGE MSHR OCCUPANCY: 2.98866e-08
ITLB MSHR FULL: 0
ITLB RQ	ACCESS:   34847999	FORWARD:          0	MERGED:    1388212	TO_CACHE:   33459787

DTLB SPEC fills:          0  NON-SPEC fills:          0
DTLB Test counter :          0
DTLB Leapfrog:          0
DTLB MSHR merge:          0
DTLB TOTAL     ACCESS:   33021991  HIT:   32961337  MISS:      60654  HIT %:    99.8163  MISS %:   0.183678   MPKI: 0.30327
DTLB LOAD TRANSLATION NON_SPEC    ACCESS:   33021991  HIT:   32961337  MISS:      60654  HIT %:    99.8163  MISS %:   0.183678   MPKI: 0.30327
DTLB PREFETCH  REQUESTED:          0  ISSUED:          0  USEFUL:          0  USELESS:          0
DTLB USEFUL LOAD PREFETCHES:          0 PREFETCH ISSUED TO LOWER LEVEL:          0  ACCURACY: -nan
DTLB TIMELY PREFETCHES:          0 LATE PREFETCHES: 0 DROPPED PREFETCHES: 0
DTLB COMMIT LATE PREFETCHES: 0 MISSED OPPORTUNITY: 0 LATE IN PQ: 0 UNCOVERED: 0
DTLB COMMIT LATE MSHR PREFETCHES: 0
DTLB MPKI TOTAL: 0 MSHR LATE: 0 PQ LATE: 0 COMMIT LATE: 0 MISSED OPPORTUNITY: 0 UNCOVERED: 0
DTLB PREFETCHES SAME FILL-ORIGIN LEVEL: 0 DIFFERENT FILL-ORIGIN LEVEL: 0
DTLB AVERAGE MISS LATENCY: 130.094 cycles
DTLB AVERAGE MISS LATENCY LOAD: -nan cycles
DTLB AVERAGE MISS LATENCY PREFETCH: -nan cycles
DTLB AVERAGE MSHR OCCUPANCY: 0.0026868
DTLB MSHR FULL: 0
DTLB RQ	ACCESS:   33580652	FORWARD:          0	MERGED:     539076	TO_CACHE:   33041576

STLB SPEC fills:          0  NON-SPEC fills:          0
STLB Test counter :          0
STLB Leapfrog:          0
STLB MSHR merge:          0
STLB TOTAL     ACCESS:   15150288  HIT:   15089970  MISS:      60318  HIT %:    99.6019  MISS %:   0.398131   MPKI: 0.30159
STLB LOAD TRANSLATION NON_SPEC    ACCESS:      60655  HIT:      18563  MISS:      42092  HIT %:    30.6042  MISS %:    69.3958   MPKI: 0.21046
STLB TRANSLATION FROM L1D PREFETCHER NON_SPEC    ACCESS:   15089633  HIT:   15071407  MISS:      18226  HIT %:    99.8792  MISS %:   0.120785   MPKI: 0.09113
STLB PREFETCH  REQUESTED:          0  ISSUED:          0  USEFUL:      18226  USELESS:          0
STLB USEFUL LOAD PREFETCHES:      18226 PREFETCH ISSUED TO LOWER LEVEL:          0  ACCURACY: inf
STLB TIMELY PREFETCHES:      18226 LATE PREFETCHES: 31930 DROPPED PREFETCHES: 649325
STLB COMMIT LATE PREFETCHES: 0 MISSED OPPORTUNITY: 0 LATE IN PQ: 0 UNCOVERED: 0
STLB COMMIT LATE MSHR PREFETCHES: 0
STLB MPKI TOTAL: 0 MSHR LATE: 0.15965 PQ LATE: 0 COMMIT LATE: 0 MISSED OPPORTUNITY: 0 UNCOVERED: 0
STLB PREFETCHES SAME FILL-ORIGIN LEVEL: 0 DIFFERENT FILL-ORIGIN LEVEL: 0
STLB AVERAGE MISS LATENCY: 145.492 cycles
STLB AVERAGE MISS LATENCY LOAD: -nan cycles
STLB AVERAGE MISS LATENCY PREFETCH: -nan cycles
STLB AVERAGE MSHR OCCUPANCY: 0.0995534
STLB MSHR FULL: 0
STLB RQ	ACCESS:  100573559	FORWARD:          0	MERGED:   84357672	TO_CACHE:   16215887

STLB Hit, L1D data hit: 0
STLB Hit, L2C data hit: 0
STLB Hit, LLC data hit: 0
STLB Hit, LLC data miss: 0
STLB STLB hints to L2: 0
L0D SPEC fills:    9531813  NON-SPEC fills:          0
L0D TimeGuard Request with older TS:       6167 Restricted eviction:         53 read:       1152
L0D Test counter :          0
L0D Leapfrog:          0
L0D MSHR merge:    2180887
L0D TOTAL     ACCESS:   28023944  HIT:    1966672  MISS:   26057272  HIT %:    7.01783  MISS %:    92.9822   MPKI: 130.286
L0D LOAD      TOTAL       ACCESS:   28023944  HIT:    1966672  MISS:   26057272  HIT %:    7.01783  MISS %:    92.9822   MPKI: 130.286
L0D LOAD      NON_SPEC    ACCESS:   16554378  HIT:      28972  MISS:   16525406  HIT %:   0.175011  MISS %:     99.825   MPKI: 82.627
L0D LOAD      SPEC        ACCESS:   11469566  HIT:    1937700  MISS:    9531866  HIT %:    16.8943  MISS %:    83.1057   MPKI: 47.6593
L0D PREFETCH  REQUESTED:          0  ISSUED:          0  USEFUL:          0  USELESS:          0
L0D USEFUL LOAD PREFETCHES:          0 PREFETCH ISSUED TO LOWER LEVEL:          0  ACCURACY: -nan
L0D TIMELY PREFETCHES:          0 LATE PREFETCHES: 0 DROPPED PREFETCHES: 0
L0D COMMIT LATE PREFETCHES: 0 MISSED OPPORTUNITY: 0 LATE IN PQ: 0 UNCOVERED: 0
L0D COMMIT LATE MSHR PREFETCHES: 0
L0D MPKI TOTAL: 141.191 MSHR LATE: 0 PQ LATE: 0 COMMIT LATE: 0 MISSED OPPORTUNITY: 0 UNCOVERED: 0
L0D PREFETCHES SAME FILL-ORIGIN LEVEL: 0 DIFFERENT FILL-ORIGIN LEVEL: 0
L0D AVERAGE MISS LATENCY: 5.64165 cycles
L0D AVERAGE MISS LATENCY LOAD: 5.64165 cycles
L0D AVERAGE MISS LATENCY PREFETCH: -nan cycles
L0D AVERAGE MSHR OCCUPANCY: 0.265057
L0D MSHR FULL: 0
L0D RQ	ACCESS:   35804802	FORWARD:          0	MERGED:    5599972	TO_CACHE:   30204830
L0D WQ	ACCESS:    3375822	FORWARD:          0	MERGED:          0	TO_CACHE:    3375822

L1D SPEC fills:          0  NON-SPEC fills:      24790
L1D Test counter :      83703
L1D Leapfrog:          0
L1D MSHR merge:      59149
L1D TOTAL     ACCESS:  108586866  HIT:  104626214  MISS:    3960652  HIT %:    96.3525  MISS %:    3.64745   MPKI: 19.8033
L1D LOAD      TOTAL       ACCESS:   26057272  HIT:   25938137  MISS:     119135  HIT %:    99.5428  MISS %:   0.457204   MPKI: 0.595675
L1D LOAD      NON_SPEC    ACCESS:   16525406  HIT:   16500616  MISS:      24790  HIT %:      99.85  MISS %:   0.150011   MPKI: 0.12395
L1D LOAD      SPEC        ACCESS:    9531866  HIT:    9437521  MISS:      94345  HIT %:    99.0102  MISS %:   0.989785   MPKI: 0.471725
L1D RFO       NON_SPEC    ACCESS:    3375823  HIT:    3375821  MISS:          2  HIT %:    99.9999  MISS %: 5.92448e-05   MPKI: 1e-05
L1D PREFETCH  NON_SPEC    ACCESS:   78832291  HIT:   75070223  MISS:    3762068  HIT %:    95.2278  MISS %:    4.77224   MPKI: 18.8103
L1D COMMIT LOAD NON_SPEC    ACCESS:     224669  HIT:     224669  MISS:          0  HIT %:        100  MISS %:          0   MPKI: 0
L1D COMMIT WRITE NON_SPEC    ACCESS:      96811  HIT:      17364  MISS:      79447  HIT %:     17.936  MISS %:     82.064   MPKI: 0.397235
L1D PREFETCH  REQUESTED:  284065648  ISSUED:  220866574  USEFUL:    3760504  USELESS:       1549
L1D USEFUL LOAD PREFETCHES:    3760504 PREFETCH ISSUED TO LOWER LEVEL:   18103252  ACCURACY: 20.7725
L1D TIMELY PREFETCHES:    3760504 LATE PREFETCHES: 59149 DROPPED PREFETCHES: 2647923
L1D COMMIT LATE PREFETCHES: 0 MISSED OPPORTUNITY: 0 LATE IN PQ: 0 UNCOVERED: 0
L1D COMMIT LATE MSHR PREFETCHES: 0
L1D MPKI TOTAL: 0.595675 MSHR LATE: 0.295745 PQ LATE: 0 COMMIT LATE: 0 MISSED OPPORTUNITY: 0 UNCOVERED: 0
L1D PREFETCHES SAME FILL-ORIGIN LEVEL: 3821219 DIFFERENT FILL-ORIGIN LEVEL: 14282033
L1D AVERAGE MISS LATENCY: 78.175 cycles
L1D AVERAGE MISS LATENCY LOAD: 138.385 cycles
L1D AVERAGE MISS LATENCY PREFETCH: 77.9191 cycles
L1D AVERAGE MSHR OCCUPANCY: 1.14911
L1D MSHR FULL: 0
L1D RQ	ACCESS:   26654506	FORWARD:          0	MERGED:     372566	TO_CACHE:   26281940
L1D WQ	ACCESS:    3472634	FORWARD:          0	MERGED:          0	TO_CACHE:    3472634
L1D PQ	ACCESS:  220866574	FORWARD:          0	MERGED:  120353670	TO_CACHE:  100512904

L1D UNIQUE REGIONS ACCESSED: 0
L1D REGIONS CONFLICTS: 0
L1D Cross Page Prefetch Requests: 19831228
L1D Same Page Prefetch Requests: 228955450
L1D ROI Sum of L1D PQ occupancy: 2044854294
L1D PREFETCHES PUSHED FROM L2C: 0
L1I SPEC fills:          0  NON-SPEC fills:          0
L1I Test counter :          0
L1I Leapfrog:          0
L1I MSHR merge:          1
L1I TOTAL     ACCESS:   34847997  HIT:   34847990  MISS:          7  HIT %:        100  MISS %: 2.00872e-05   MPKI: 3.5e-05
L1I LOAD      TOTAL       ACCESS:   34847997  HIT:   34847990  MISS:          7  HIT %:        100  MISS %: 2.00872e-05   MPKI: 3.5e-05
L1I LOAD      NON_SPEC    ACCESS:   34847997  HIT:   34847990  MISS:          7  HIT %:        100  MISS %: 2.00872e-05   MPKI: 3.5e-05
L1I PREFETCH  REQUESTED:          0  ISSUED:          0  USEFUL:          0  USELESS:          0
L1I USEFUL LOAD PREFETCHES:          0 PREFETCH ISSUED TO LOWER LEVEL:          0  ACCURACY: -nan
L1I TIMELY PREFETCHES:          0 LATE PREFETCHES: 0 DROPPED PREFETCHES: 0
L1I COMMIT LATE PREFETCHES: 0 MISSED OPPORTUNITY: 0 LATE IN PQ: 0 UNCOVERED: 0
L1I COMMIT LATE MSHR PREFETCHES: 0
L1I MPKI TOTAL: 4e-05 MSHR LATE: 0 PQ LATE: 0 COMMIT LATE: 0 MISSED OPPORTUNITY: 0 UNCOVERED: 0
L1I PREFETCHES SAME FILL-ORIGIN LEVEL: 0 DIFFERENT FILL-ORIGIN LEVEL: 0
L1I AVERAGE MISS LATENCY: 214.143 cycles
L1I AVERAGE MISS LATENCY LOAD: 214.143 cycles
L1I AVERAGE MISS LATENCY PREFETCH: -nan cycles
L1I AVERAGE MSHR OCCUPANCY: 1.4348e-07
L1I MSHR FULL: 0
L1I RQ	ACCESS:   43870861	FORWARD:          0	MERGED:    9022862	TO_CACHE:   34847999

BTB SPEC fills:          0  NON-SPEC fills:          0
BTB Test counter :          0
BTB Leapfrog:          0
BTB MSHR merge:          0
BTB TOTAL     ACCESS:   30088184  HIT:   30088173  MISS:         11  HIT %:        100  MISS %: 3.65592e-05   MPKI: 5.5e-05
BTB BRANCH_DIRECT_JUMP	ACCESS:    1387292  HIT:    1387290  MISS:          2
BTB BRANCH_INDIRECT	ACCESS:          0  HIT:          0  MISS:          0
BTB BRANCH_CONDITIONAL	ACCESS:   28700892  HIT:   28700883  MISS:          9
BTB BRANCH_DIRECT_CALL	ACCESS:          0  HIT:          0  MISS:          0
BTB BRANCH_INDIRECT_CALL	ACCESS:          0  HIT:          0  MISS:          0
BTB BRANCH_RETURN	ACCESS:          0  HIT:          0  MISS:          0
BTB BRANCH_OTHER ACCESS:          0  HIT:          0  MISS:          0

L2C SPEC fills:          0  NON-SPEC fills:      24127
L2C Test counter :      83612
L2C Leapfrog:          0
L2C MSHR merge:       1213
L2C TOTAL     ACCESS:   14696302  HIT:   10801725  MISS:    3894577  HIT %:    73.4996  MISS %:    26.5004   MPKI: 19.4729
L2C LOAD      TOTAL       ACCESS:      59993  HIT:      10326  MISS:      49667  HIT %:     17.212  MISS %:     82.788   MPKI: 0.248335
L2C LOAD      NON_SPEC    ACCESS:      24166  HIT:         32  MISS:      24134  HIT %:   0.132417  MISS %:    99.8676   MPKI: 0.12067
L2C LOAD      SPEC        ACCESS:      35827  HIT:      10294  MISS:      25533  HIT %:    28.7325  MISS %:    71.2675   MPKI: 0.127665
L2C RFO       NON_SPEC    ACCESS:          2  HIT:          0  MISS:          2  HIT %:          0  MISS %:        100   MPKI: 1e-05
L2C PREFETCH  NON_SPEC    ACCESS:   10846270  HIT:    7032421  MISS:    3813849  HIT %:    64.8372  MISS %:    35.1628   MPKI: 19.0692
L2C WRITEBACK NON_SPEC    ACCESS:          3  HIT:          1  MISS:          2  HIT %:    33.3333  MISS %:    66.6667   MPKI: 1e-05
L2C CLEAN_EVICTION NON_SPEC    ACCESS:      83703  HIT:      60209  MISS:      23494  HIT %:    71.9317  MISS %:    28.0683   MPKI: 0.11747
L2C LOAD TRANSLATION NON_SPEC    ACCESS:     210379  HIT:     210371  MISS:          8  HIT %:    99.9962  MISS %: 0.00380266   MPKI: 4e-05
L2C TRANSLATION FROM L1D PREFETCHER NON_SPEC    ACCESS:    3495952  HIT:    3488397  MISS:       7555  HIT %:    99.7839  MISS %:   0.216107   MPKI: 0.037775
L2C PREFETCH  REQUESTED:          0  ISSUED:          0  USEFUL:      13180  USELESS:    3808309
L2C USEFUL LOAD PREFETCHES:      13180 PREFETCH ISSUED TO LOWER LEVEL:    3815065  ACCURACY: 0.345472
L2C TIMELY PREFETCHES:      13180 LATE PREFETCHES: 1213 DROPPED PREFETCHES: 0
L2C COMMIT LATE PREFETCHES: 0 MISSED OPPORTUNITY: 0 LATE IN PQ: 0 UNCOVERED: 0
L2C COMMIT LATE MSHR PREFETCHES: 0
L2C MPKI TOTAL: 0.248335 MSHR LATE: 0.006065 PQ LATE: 0 COMMIT LATE: 0 MISSED OPPORTUNITY: 0 UNCOVERED: 0
L2C PREFETCHES SAME FILL-ORIGIN LEVEL: 2383371 DIFFERENT FILL-ORIGIN LEVEL: 0
L2C AVERAGE MISS LATENCY: 166.349 cycles
L2C AVERAGE MISS LATENCY LOAD: 139.105 cycles
L2C AVERAGE MISS LATENCY PREFETCH: 167.647 cycles
L2C AVERAGE MSHR OCCUPANCY: 0.614803
L2C MSHR FULL: 0
L2C RQ	ACCESS:    3766326	FORWARD:          0	MERGED:          0	TO_CACHE:    3766326
L2C WQ	ACCESS:      83706	FORWARD:          0	MERGED:          0	TO_CACHE:      83706
L2C PQ	ACCESS:   18103252	FORWARD:          0	MERGED:       3231	TO_CACHE:   18100021

L2C Instructions Evicting Data 7
L2C Translations Evicting Data 7563
L2C Data Evicting Data 3830469
L2C Instructions Evicting Instructions 0
L2C Translations Evicting Instructions 0
L2C Data Evicting Instructions 7
L2C Instructions Evicting Translations 0
L2C Translations Evicting Translations 0
L2C Data Evicting Translations 7502
L2C Dense regions hint from L2: 0
PSCL5 SPEC fills:          0  NON-SPEC fills:          0
PSCL5 Test counter :          0
PSCL5 Leapfrog:          0
PSCL5 MSHR merge:          0
PSCL5 TOTAL     ACCESS:          0  HIT:          0  MISS:          0  HIT %:       -nan  MISS %:       -nan   MPKI: 0
PSCL5 PREFETCH  REQUESTED:          0  ISSUED:          0  USEFUL:          0  USELESS:          0
PSCL5 USEFUL LOAD PREFETCHES:          0 PREFETCH ISSUED TO LOWER LEVEL:          0  ACCURACY: -nan
PSCL5 TIMELY PREFETCHES:          0 LATE PREFETCHES: 0 DROPPED PREFETCHES: 0
PSCL5 COMMIT LATE PREFETCHES: 0 MISSED OPPORTUNITY: 0 LATE IN PQ: 0 UNCOVERED: 0
PSCL5 COMMIT LATE MSHR PREFETCHES: 0
PSCL5 MPKI TOTAL: 0 MSHR LATE: 0 PQ LATE: 0 COMMIT LATE: 0 MISSED OPPORTUNITY: 0 UNCOVERED: 0
PSCL5 PREFETCHES SAME FILL-ORIGIN LEVEL: 0 DIFFERENT FILL-ORIGIN LEVEL: 0

PSCL4 SPEC fills:          0  NON-SPEC fills:          0
PSCL4 Test counter :          0
PSCL4 Leapfrog:          0
PSCL4 MSHR merge:          0
PSCL4 TOTAL     ACCESS:          0  HIT:          0  MISS:          0  HIT %:       -nan  MISS %:       -nan   MPKI: 0
PSCL4 PREFETCH  REQUESTED:          0  ISSUED:          0  USEFUL:          0  USELESS:          0
PSCL4 USEFUL LOAD PREFETCHES:          0 PREFETCH ISSUED TO LOWER LEVEL:          0  ACCURACY: -nan
PSCL4 TIMELY PREFETCHES:          0 LATE PREFETCHES: 0 DROPPED PREFETCHES: 0
PSCL4 COMMIT LATE PREFETCHES: 0 MISSED OPPORTUNITY: 0 LATE IN PQ: 0 UNCOVERED: 0
PSCL4 COMMIT LATE MSHR PREFETCHES: 0
PSCL4 MPKI TOTAL: 0 MSHR LATE: 0 PQ LATE: 0 COMMIT LATE: 0 MISSED OPPORTUNITY: 0 UNCOVERED: 0
PSCL4 PREFETCHES SAME FILL-ORIGIN LEVEL: 0 DIFFERENT FILL-ORIGIN LEVEL: 0

PSCL3 SPEC fills:          0  NON-SPEC fills:          0
PSCL3 Test counter :          0
PSCL3 Leapfrog:          0
PSCL3 MSHR merge:          0
PSCL3 TOTAL     ACCESS:          0  HIT:          0  MISS:          0  HIT %:       -nan  MISS %:       -nan   MPKI: 0
PSCL3 PREFETCH  REQUESTED:          0  ISSUED:          0  USEFUL:          0  USELESS:          0
PSCL3 USEFUL LOAD PREFETCHES:          0 PREFETCH ISSUED TO LOWER LEVEL:          0  ACCURACY: -nan
PSCL3 TIMELY PREFETCHES:          0 LATE PREFETCHES: 0 DROPPED PREFETCHES: 0
PSCL3 COMMIT LATE PREFETCHES: 0 MISSED OPPORTUNITY: 0 LATE IN PQ: 0 UNCOVERED: 0
PSCL3 COMMIT LATE MSHR PREFETCHES: 0
PSCL3 MPKI TOTAL: 0 MSHR LATE: 0 PQ LATE: 0 COMMIT LATE: 0 MISSED OPPORTUNITY: 0 UNCOVERED: 0
PSCL3 PREFETCHES SAME FILL-ORIGIN LEVEL: 0 DIFFERENT FILL-ORIGIN LEVEL: 0

PSCL2 SPEC fills:          0  NON-SPEC fills:          0
PSCL2 Test counter :          0
PSCL2 Leapfrog:          0
PSCL2 MSHR merge:          0
PSCL2 TOTAL     ACCESS:          0  HIT:          0  MISS:          0  HIT %:       -nan  MISS %:       -nan   MPKI: 0
PSCL2 PREFETCH  REQUESTED:          0  ISSUED:          0  USEFUL:          0  USELESS:          0
PSCL2 USEFUL LOAD PREFETCHES:          0 PREFETCH ISSUED TO LOWER LEVEL:          0  ACCURACY: -nan
PSCL2 TIMELY PREFETCHES:          0 LATE PREFETCHES: 0 DROPPED PREFETCHES: 0
PSCL2 COMMIT LATE PREFETCHES: 0 MISSED OPPORTUNITY: 0 LATE IN PQ: 0 UNCOVERED: 0
PSCL2 COMMIT LATE MSHR PREFETCHES: 0
PSCL2 MPKI TOTAL: 0 MSHR LATE: 0 PQ LATE: 0 COMMIT LATE: 0 MISSED OPPORTUNITY: 0 UNCOVERED: 0
PSCL2 PREFETCHES SAME FILL-ORIGIN LEVEL: 0 DIFFERENT FILL-ORIGIN LEVEL: 0

LLC SPEC fills:          0  NON-SPEC fills:      24028
LLC Test counter :      82035
LLC Leapfrog:          0
LLC MSHR merge:          0
LLC TOTAL     ACCESS:    3954695  HIT:      63730  MISS:    3890965  HIT %:     1.6115  MISS %:    98.3885   MPKI: 19.4548
LLC LOAD      TOTAL       ACCESS:      48453  HIT:       1225  MISS:      47228  HIT %:    2.52822  MISS %:    97.4718   MPKI: 0.23614
LLC LOAD      NON_SPEC    ACCESS:      24100  HIT:         65  MISS:      24035  HIT %:    0.26971  MISS %:    99.7303   MPKI: 0.120175
LLC LOAD      SPEC        ACCESS:      24353  HIT:       1160  MISS:      23193  HIT %:    4.76327  MISS %:    95.2367   MPKI: 0.115965
LLC RFO       NON_SPEC    ACCESS:          2  HIT:          0  MISS:          2  HIT %:          0  MISS %:        100   MPKI: 1e-05
LLC PREFETCH  NON_SPEC    ACCESS:    3815062  HIT:          2  MISS:    3815060  HIT %: 5.24238e-05  MISS %:    99.9999   MPKI: 19.0753
LLC WRITEBACK NON_SPEC    ACCESS:          3  HIT:          1  MISS:          2  HIT %:    33.3333  MISS %:    66.6667   MPKI: 1e-05
LLC CLEAN_EVICTION NON_SPEC    ACCESS:      83612  HIT:      62502  MISS:      21110  HIT %:    74.7524  MISS %:    25.2476   MPKI: 0.10555
LLC LOAD TRANSLATION NON_SPEC    ACCESS:          8  HIT:          0  MISS:          8  HIT %:          0  MISS %:        100   MPKI: 4e-05
LLC TRANSLATION FROM L1D PREFETCHER NON_SPEC    ACCESS:       7555  HIT:          0  MISS:       7555  HIT %:          0  MISS %:        100   MPKI: 0.037775
LLC PREFETCH  REQUESTED:          0  ISSUED:          0  USEFUL:          0  USELESS:    3822875
LLC USEFUL LOAD PREFETCHES:          0 PREFETCH ISSUED TO LOWER LEVEL:    3815062  ACCURACY: 0
LLC TIMELY PREFETCHES:          0 LATE PREFETCHES: 0 DROPPED PREFETCHES: 0
LLC COMMIT LATE PREFETCHES: 0 MISSED OPPORTUNITY: 0 LATE IN PQ: 0 UNCOVERED: 0
LLC COMMIT LATE MSHR PREFETCHES: 0
LLC MPKI TOTAL: 0.23614 MSHR LATE: 0 PQ LATE: 0 COMMIT LATE: 0 MISSED OPPORTUNITY: 0 UNCOVERED: 0
LLC PREFETCHES SAME FILL-ORIGIN LEVEL: 0 DIFFERENT FILL-ORIGIN LEVEL: 0
LLC AVERAGE MISS LATENCY: 136.663 cycles
LLC AVERAGE MISS LATENCY LOAD: 116.074 cycles
LLC AVERAGE MISS LATENCY PREFETCH: 137.593 cycles
LLC AVERAGE MSHR OCCUPANCY: 1.02203
LLC MSHR FULL: 0
LLC RQ	ACCESS:      56019	FORWARD:          0	MERGED:          0	TO_CACHE:      56018
LLC WQ	ACCESS:      83615	FORWARD:          1	MERGED:          0	TO_CACHE:      83615
LLC PQ	ACCESS:    3815065	FORWARD:          0	MERGED:          0	TO_CACHE:    3815065

LLC Dense regions hint to LLC: 0

RAW hits: 1
Loads Generated: 35804805
Loads sent to L1D: 35804802
Stores Generated: 3375822
Stores sent to L1D: 3375822
Major fault: 0 Minor fault: 62153
Allocated PAGES: 62153
Total Load insts: 43892553
Total Non-spec loads: 16913583
Percentage of speculative loads: 61.4659

LeapFrogging counter: 0
Commit hits: 9529697 miss: 9720692
Commit hit %: 49.5039 miss %: 50.4961
Commits not translated: 0
Loads retired: 119135
Stores retired: 3375822
Cache fills: 119135
L1D response latency: 138.385 cycles
Load retirement latency: 238.816 cycles
OOO test counter: 0
Discarded buffer inserts: 9529697 hits: 6036 hit %: 0.0633388
Filter prediction accuracy: 99.9977
ALL MISSES SIZE: 6064
LATENCY_FILL: 135.475 118893
LATENCY_FILL_ROB: 151.298 118863
test counter pref: 2402437
Max ROB Extended: 10

DRAM Statistics
 CHANNEL 0
 RQ ROW_BUFFER_HIT:    2063228  ROW_BUFFER_MISS:    1806625
 DBUS_CONGESTED:      13293
 WQ ROW_BUFFER_HIT:      16211  ROW_BUFFER_MISS:      65826  FULL:          0

 AVG_CONGESTED_CYCLE: 4
 All warmup complete: 2
Channel 0 Bank busy for read cycles: 0
Channel 0 Bank busy for write cycles: 0
Channel 0
Rank 0
0banks busy for read cycles: 46485923
0banks busy for write cycles: 38946
1banks busy for read cycles: 78013721
1banks busy for write cycles: 12812835
2banks busy for read cycles: 44727677
2banks busy for write cycles: 18983075
3banks busy for read cycles: 31212839
3banks busy for write cycles: 5631731
4banks busy for read cycles: 15945449
4banks busy for write cycles: 740767
5banks busy for read cycles: 2241360
5banks busy for write cycles: 1928955
6banks busy for read cycles: 1436039
6banks busy for write cycles: 705522
7banks busy for read cycles: 553639
7banks busy for write cycles: 210
8banks busy for read cycles: 3204045
8banks busy for write cycles: 6240

CPU 0 Branch Prediction Accuracy: 99.8669% MPKI: 0.223155 Average ROB Occupancy at Mispredict: 26.8535
Branch types
NOT_BRANCH: 166478330 83.2392%
BRANCH_DIRECT_JUMP: 1387292 0.693646%
BRANCH_INDIRECT: 0 0%
BRANCH_CONDITIONAL: 32134342 16.0672%
BRANCH_DIRECT_CALL: 0 0%
BRANCH_INDIRECT_CALL: 0 0%
BRANCH_RETURN: 0 0%
BRANCH_OTHER: 0 0%

DRAM PAGES: 1048576
Allocated PAGES: 62153
