
*** ChampSim Multicore Out-of-Order Simulator ***

Warmup Instructions: 50000000
Simulation Instructions: 200000000
Number of CPUs: 1
LLC sets: 2048
LLC ways: 16
L0D sets: 16
L0D ways: 2
ROB size: 352
LQ size: 128
SQ size: 72
Secure Berti: ON
Berti: ON
Berti Fill: ON
On commit prefetching: OFF
Hit-based filter: ON
Time-guarding: ON
Free-slotting: ON
Leap-frogging: ON
Train prefetcher on L0D bypass: OFF
No translation penalty for prefetchers: OFF
Prefetch to L0D only: OFF
Prefetch to L1D only: OFF
Clean evictions: ON
Commit loads: ON
Commit write: ON
Fill commit loads to L2C, LLC: ON
DRAM IO FREQUENCY: 6400
ROB SIZE: 352
Off-chip DRAM Size: 4096 MB Channels: 1 Width: 64-bit Data Rate: 6400 MT/s
CPU 0 runs /home/sumon/secure_berti/GhostMinion/../../traces/spec/605.mcf_s-994B.champsimtrace.xz
.xz
BTB has LRU replacement policy
ITLB has LRU replacement policy
DTLB has LRU replacement policy
STLB has LRU replacement policy
L1I has LRU replacement policy
L0D has LRU replacement policy
Berti version on_commit
History Sets: 8
History Ways: 16
BERTI Size: 16
BERTI Stride Size: 16
L1D has LRU replacement policy
L2C has LRU replacement policy
LLC has LRU replacement policy
Heartbeat CPU 0 instructions: 10000000 cycles: 6137194 heartbeat IPC: 1.62941 cumulative IPC: 1.62941 (Simulation time: 0 hr 1 min 42 sec) 
Heartbeat CPU 0 instructions: 20000000 cycles: 12442548 heartbeat IPC: 1.58595 cumulative IPC: 1.60739 (Simulation time: 0 hr 3 min 37 sec) 
Heartbeat CPU 0 instructions: 30000003 cycles: 18674705 heartbeat IPC: 1.60458 cumulative IPC: 1.60645 (Simulation time: 0 hr 5 min 28 sec) 
Heartbeat CPU 0 instructions: 40000002 cycles: 24869310 heartbeat IPC: 1.61431 cumulative IPC: 1.60841 (Simulation time: 0 hr 7 min 9 sec) 
Heartbeat CPU 0 instructions: 50000001 cycles: 31160073 heartbeat IPC: 1.58963 cumulative IPC: 1.60462 (Simulation time: 0 hr 9 min 0 sec) 

Warmup complete CPU 0 instructions: 50000001 cycles: 31160073 (Simulation time: 0 hr 9 min 0 sec) 

Heartbeat CPU 0 instructions: 60000000 cycles: 70583448 heartbeat IPC: 0.253657 cumulative IPC: 0.253657 (Simulation time: 0 hr 10 min 52 sec) 
Heartbeat CPU 0 instructions: 70000003 cycles: 116932730 heartbeat IPC: 0.215753 cumulative IPC: 0.233175 (Simulation time: 0 hr 12 min 52 sec) 
Heartbeat CPU 0 instructions: 80000002 cycles: 146954290 heartbeat IPC: 0.333094 cumulative IPC: 0.25908 (Simulation time: 0 hr 14 min 36 sec) 
Heartbeat CPU 0 instructions: 90000002 cycles: 177916422 heartbeat IPC: 0.322975 cumulative IPC: 0.272561 (Simulation time: 0 hr 16 min 25 sec) 
Heartbeat CPU 0 instructions: 100000001 cycles: 206273613 heartbeat IPC: 0.352644 cumulative IPC: 0.285529 (Simulation time: 0 hr 18 min 6 sec) 
Heartbeat CPU 0 instructions: 110000000 cycles: 257701397 heartbeat IPC: 0.194447 cumulative IPC: 0.264852 (Simulation time: 0 hr 20 min 13 sec) 
Heartbeat CPU 0 instructions: 120000000 cycles: 296648123 heartbeat IPC: 0.256761 cumulative IPC: 0.263665 (Simulation time: 0 hr 22 min 3 sec) 
Heartbeat CPU 0 instructions: 130000000 cycles: 330935971 heartbeat IPC: 0.291649 cumulative IPC: 0.266866 (Simulation time: 0 hr 23 min 47 sec) 
Heartbeat CPU 0 instructions: 140000000 cycles: 374852208 heartbeat IPC: 0.227706 cumulative IPC: 0.261862 (Simulation time: 0 hr 25 min 34 sec) 
Heartbeat CPU 0 instructions: 150000001 cycles: 438295797 heartbeat IPC: 0.15762 cumulative IPC: 0.245618 (Simulation time: 0 hr 27 min 31 sec) 
Heartbeat CPU 0 instructions: 160000000 cycles: 469010002 heartbeat IPC: 0.325582 cumulative IPC: 0.251228 (Simulation time: 0 hr 29 min 8 sec) 
Heartbeat CPU 0 instructions: 170000002 cycles: 493391349 heartbeat IPC: 0.41015 cumulative IPC: 0.25961 (Simulation time: 0 hr 30 min 36 sec) 
Heartbeat CPU 0 instructions: 180000000 cycles: 563721960 heartbeat IPC: 0.142186 cumulative IPC: 0.244103 (Simulation time: 0 hr 32 min 37 sec) 
Heartbeat CPU 0 instructions: 190000003 cycles: 589280318 heartbeat IPC: 0.391262 cumulative IPC: 0.250842 (Simulation time: 0 hr 33 min 36 sec) 
Heartbeat CPU 0 instructions: 200000000 cycles: 621189240 heartbeat IPC: 0.313392 cumulative IPC: 0.254225 (Simulation time: 0 hr 34 min 52 sec) 
Heartbeat CPU 0 instructions: 210000001 cycles: 668088677 heartbeat IPC: 0.213222 cumulative IPC: 0.251206 (Simulation time: 0 hr 36 min 28 sec) 
Heartbeat CPU 0 instructions: 220000000 cycles: 726246470 heartbeat IPC: 0.171946 cumulative IPC: 0.244574 (Simulation time: 0 hr 37 min 33 sec) 
Heartbeat CPU 0 instructions: 230000000 cycles: 759280750 heartbeat IPC: 0.302716 cumulative IPC: 0.247212 (Simulation time: 0 hr 38 min 25 sec) 
Heartbeat CPU 0 instructions: 240000002 cycles: 793247323 heartbeat IPC: 0.294407 cumulative IPC: 0.249315 (Simulation time: 0 hr 39 min 17 sec) 
Heartbeat CPU 0 instructions: 250000000 cycles: 818725295 heartbeat IPC: 0.392496 cumulative IPC: 0.253947 (Simulation time: 0 hr 40 min 2 sec) 
Finished CPU 0 instructions: 200000002 cycles: 787565229 cumulative IPC: 0.253947 (Simulation time: 0 hr 40 min 2 sec) 
 Instruction ID: 250000010

ChampSim completed all CPUs

Region of Interest Statistics

CPU 0 cumulative IPC: 0.253947 instructions: 200000002 cycles: 787565229
ITLB SPEC fills:          0  NON-SPEC fills:          0
ITLB Test counter :          0
ITLB Leapfrog:          0
ITLB MSHR merge:          0
ITLB TOTAL     ACCESS:   35381032  HIT:   35381032  MISS:          0  HIT %:        100  MISS %:          0   MPKI: 0
ITLB LOAD TRANSLATION NON_SPEC    ACCESS:   35381032  HIT:   35381032  MISS:          0  HIT %:        100  MISS %:          0   MPKI: 0
ITLB PREFETCH  REQUESTED:          0  ISSUED:          0  USEFUL:          0  USELESS:          0
ITLB USEFUL LOAD PREFETCHES:          0 PREFETCH ISSUED TO LOWER LEVEL:          0  ACCURACY: -nan
ITLB TIMELY PREFETCHES:          0 LATE PREFETCHES: 0 DROPPED PREFETCHES: 0
ITLB COMMIT LATE PREFETCHES: 0 MISSED OPPORTUNITY: 0 LATE IN PQ: 0 UNCOVERED: 0
ITLB COMMIT LATE MSHR PREFETCHES: 0
ITLB MPKI TOTAL: 0 MSHR LATE: 0 PQ LATE: 0 COMMIT LATE: 0 MISSED OPPORTUNITY: 0 UNCOVERED: 0
ITLB PREFETCHES SAME FILL-ORIGIN LEVEL: 0 DIFFERENT FILL-ORIGIN LEVEL: 0
ITLB AVERAGE MISS LATENCY: -nan cycles
ITLB AVERAGE MISS LATENCY LOAD: -nan cycles
ITLB AVERAGE MISS LATENCY PREFETCH: -nan cycles
ITLB AVERAGE MSHR OCCUPANCY: 0
ITLB MSHR FULL: 0
ITLB RQ	ACCESS:   36247541	FORWARD:          0	MERGED:     866509	TO_CACHE:   35381032

DTLB SPEC fills:          0  NON-SPEC fills:          0
DTLB Test counter :          0
DTLB Leapfrog:          0
DTLB MSHR merge:          0
DTLB TOTAL     ACCESS:   72129637  HIT:   69206598  MISS:    2923039  HIT %:    95.9475  MISS %:    4.05248   MPKI: 14.6152
DTLB LOAD TRANSLATION NON_SPEC    ACCESS:   72129637  HIT:   69206598  MISS:    2923039  HIT %:    95.9475  MISS %:    4.05248   MPKI: 14.6152
DTLB PREFETCH  REQUESTED:          0  ISSUED:          0  USEFUL:          0  USELESS:          0
DTLB USEFUL LOAD PREFETCHES:          0 PREFETCH ISSUED TO LOWER LEVEL:          0  ACCURACY: -nan
DTLB TIMELY PREFETCHES:          0 LATE PREFETCHES: 0 DROPPED PREFETCHES: 0
DTLB COMMIT LATE PREFETCHES: 0 MISSED OPPORTUNITY: 0 LATE IN PQ: 0 UNCOVERED: 0
DTLB COMMIT LATE MSHR PREFETCHES: 0
DTLB MPKI TOTAL: 0 MSHR LATE: 0 PQ LATE: 0 COMMIT LATE: 0 MISSED OPPORTUNITY: 0 UNCOVERED: 0
DTLB PREFETCHES SAME FILL-ORIGIN LEVEL: 0 DIFFERENT FILL-ORIGIN LEVEL: 0
DTLB AVERAGE MISS LATENCY: 87.5085 cycles
DTLB AVERAGE MISS LATENCY LOAD: -nan cycles
DTLB AVERAGE MISS LATENCY PREFETCH: -nan cycles
DTLB AVERAGE MSHR OCCUPANCY: 0.179702
DTLB MSHR FULL: 0
DTLB RQ	ACCESS:   84431730	FORWARD:          0	MERGED:   11429024	TO_CACHE:   73002706

STLB SPEC fills:          0  NON-SPEC fills:          0
STLB Test counter :          0
STLB Leapfrog:          0
STLB MSHR merge:          0
STLB TOTAL     ACCESS:   10923446  HIT:    9478009  MISS:    1445437  HIT %:    86.7676  MISS %:    13.2324   MPKI: 7.22718
STLB LOAD TRANSLATION NON_SPEC    ACCESS:    2923039  HIT:    1480561  MISS:    1442478  HIT %:    50.6514  MISS %:    49.3486   MPKI: 7.21239
STLB TRANSLATION FROM L1D PREFETCHER NON_SPEC    ACCESS:    8000407  HIT:    7997448  MISS:       2959  HIT %:     99.963  MISS %:  0.0369856   MPKI: 0.014795
STLB PREFETCH  REQUESTED:          0  ISSUED:          0  USEFUL:       2817  USELESS:        142
STLB USEFUL LOAD PREFETCHES:       2817 PREFETCH ISSUED TO LOWER LEVEL:          0  ACCURACY: inf
STLB TIMELY PREFETCHES:       2817 LATE PREFETCHES: 73 DROPPED PREFETCHES: 7299
STLB COMMIT LATE PREFETCHES: 0 MISSED OPPORTUNITY: 0 LATE IN PQ: 0 UNCOVERED: 0
STLB COMMIT LATE MSHR PREFETCHES: 0
STLB MPKI TOTAL: 0 MSHR LATE: 0.000365 PQ LATE: 0 COMMIT LATE: 0 MISSED OPPORTUNITY: 0 UNCOVERED: 0
STLB PREFETCHES SAME FILL-ORIGIN LEVEL: 0 DIFFERENT FILL-ORIGIN LEVEL: 0
STLB AVERAGE MISS LATENCY: 158.777 cycles
STLB AVERAGE MISS LATENCY LOAD: -nan cycles
STLB AVERAGE MISS LATENCY PREFETCH: -nan cycles
STLB AVERAGE MSHR OCCUPANCY: 0.14695
STLB MSHR FULL: 0
STLB RQ	ACCESS:   28302772	FORWARD:          0	MERGED:   17371802	TO_CACHE:   10930970

STLB Hit, L1D data hit: 0
STLB Hit, L2C data hit: 0
STLB Hit, LLC data hit: 0
STLB Hit, LLC data miss: 0
STLB STLB hints to L2: 0
L0D SPEC fills:   42646869  NON-SPEC fills:          0
L0D TimeGuard Request with older TS:     343180 Restricted eviction:     143108 read:     259631
L0D Test counter :          0
L0D Leapfrog:          0
L0D MSHR merge:     650620
L0D TOTAL     ACCESS:   63533054  HIT:    4486277  MISS:   59046777  HIT %:    7.06133  MISS %:    92.9387   MPKI: 295.234
L0D LOAD      TOTAL       ACCESS:   63533054  HIT:    4486277  MISS:   59046777  HIT %:    7.06133  MISS %:    92.9387   MPKI: 295.234
L0D LOAD      NON_SPEC    ACCESS:   16709405  HIT:     452603  MISS:   16256802  HIT %:    2.70867  MISS %:    97.2913   MPKI: 81.284
L0D LOAD      SPEC        ACCESS:   46823649  HIT:    4033674  MISS:   42789975  HIT %:    8.61461  MISS %:    91.3854   MPKI: 213.95
L0D PREFETCH  REQUESTED:          0  ISSUED:          0  USEFUL:          0  USELESS:          0
L0D USEFUL LOAD PREFETCHES:          0 PREFETCH ISSUED TO LOWER LEVEL:          0  ACCURACY: -nan
L0D TIMELY PREFETCHES:          0 LATE PREFETCHES: 0 DROPPED PREFETCHES: 0
L0D COMMIT LATE PREFETCHES: 0 MISSED OPPORTUNITY: 0 LATE IN PQ: 0 UNCOVERED: 0
L0D COMMIT LATE MSHR PREFETCHES: 0
L0D MPKI TOTAL: 298.487 MSHR LATE: 0 PQ LATE: 0 COMMIT LATE: 0 MISSED OPPORTUNITY: 0 UNCOVERED: 0
L0D PREFETCHES SAME FILL-ORIGIN LEVEL: 0 DIFFERENT FILL-ORIGIN LEVEL: 0
L0D AVERAGE MISS LATENCY: 15.5326 cycles
L0D AVERAGE MISS LATENCY LOAD: 15.5326 cycles
L0D AVERAGE MISS LATENCY PREFETCH: -nan cycles
L0D AVERAGE MSHR OCCUPANCY: 0.783263
L0D MSHR FULL: 1.40223e-07
L0D RQ	ACCESS:   67637922	FORWARD:          0	MERGED:    3454250	TO_CACHE:   64183672
L0D WQ	ACCESS:   20248058	FORWARD:          0	MERGED:          0	TO_CACHE:   20248058

L1D SPEC fills:          0  NON-SPEC fills:    2066339
L1D Test counter :    3159694
L1D Leapfrog:          0
L1D MSHR merge:       2767
L1D TOTAL     ACCESS:  104778140  HIT:   93062700  MISS:   11715440  HIT %:    88.8188  MISS %:    11.1812   MPKI: 58.5772
L1D LOAD      TOTAL       ACCESS:   59044109  HIT:   52276831  MISS:    6767278  HIT %:    88.5386  MISS %:    11.4614   MPKI: 33.8364
L1D LOAD      NON_SPEC    ACCESS:   16256417  HIT:   14190078  MISS:    2066339  HIT %:    87.2891  MISS %:    12.7109   MPKI: 10.3317
L1D LOAD      SPEC        ACCESS:   42787692  HIT:   38086753  MISS:    4700939  HIT %:    89.0133  MISS %:    10.9867   MPKI: 23.5047
L1D RFO       NON_SPEC    ACCESS:   20081940  HIT:   20032406  MISS:      49534  HIT %:    99.7533  MISS %:   0.246659   MPKI: 0.24767
L1D PREFETCH  NON_SPEC    ACCESS:   20839723  HIT:   20616328  MISS:     223395  HIT %:     98.928  MISS %:    1.07197   MPKI: 1.11697
L1D COMMIT LOAD NON_SPEC    ACCESS:     173835  HIT:     109423  MISS:      64412  HIT %:    62.9465  MISS %:    37.0535   MPKI: 0.32206
L1D COMMIT WRITE NON_SPEC    ACCESS:    4638533  HIT:      27712  MISS:    4610821  HIT %:    0.59743  MISS %:    99.4026   MPKI: 23.0541
L1D PREFETCH  REQUESTED:   25892131  ISSUED:   25892043  USEFUL:     216230  USELESS:       7168
L1D USEFUL LOAD PREFETCHES:     216230 PREFETCH ISSUED TO LOWER LEVEL:    4723418  ACCURACY: 4.57783
L1D TIMELY PREFETCHES:     216230 LATE PREFETCHES: 99 DROPPED PREFETCHES: 20104
L1D COMMIT LATE PREFETCHES: 0 MISSED OPPORTUNITY: 0 LATE IN PQ: 0 UNCOVERED: 0
L1D COMMIT LATE MSHR PREFETCHES: 0
L1D MPKI TOTAL: 33.8497 MSHR LATE: 0.000495 PQ LATE: 0 COMMIT LATE: 0 MISSED OPPORTUNITY: 0 UNCOVERED: 0
L1D PREFETCHES SAME FILL-ORIGIN LEVEL: 223494 DIFFERENT FILL-ORIGIN LEVEL: 4499924
L1D AVERAGE MISS LATENCY: 54.3043 cycles
L1D AVERAGE MISS LATENCY LOAD: 90.9828 cycles
L1D AVERAGE MISS LATENCY PREFETCH: 62.1334 cycles
L1D AVERAGE MSHR OCCUPANCY: 0.295587
L1D MSHR FULL: 0
L1D RQ	ACCESS:   59224111	FORWARD:          0	MERGED:       2862	TO_CACHE:   59221208
L1D WQ	ACCESS:   24886591	FORWARD:         41	MERGED:      83363	TO_CACHE:   24803228
L1D PQ	ACCESS:   25892043	FORWARD:          0	MERGED:     512310	TO_CACHE:   25379733

L1D UNIQUE REGIONS ACCESSED: 0
L1D REGIONS CONFLICTS: 0
L1D Cross Page Prefetch Requests: 3217412
L1D Same Page Prefetch Requests: 31348962
L1D ROI Sum of L1D PQ occupancy: 377420686
L1D PREFETCHES PUSHED FROM L2C: 0
L1I SPEC fills:          0  NON-SPEC fills:          0
L1I Test counter :          0
L1I Leapfrog:          0
L1I MSHR merge:          0
L1I TOTAL     ACCESS:   36247540  HIT:   36247540  MISS:          0  HIT %:        100  MISS %:          0   MPKI: 0
L1I LOAD      TOTAL       ACCESS:   36247540  HIT:   36247540  MISS:          0  HIT %:        100  MISS %:          0   MPKI: 0
L1I LOAD      NON_SPEC    ACCESS:   36247540  HIT:   36247540  MISS:          0  HIT %:        100  MISS %:          0   MPKI: 0
L1I PREFETCH  REQUESTED:          0  ISSUED:          0  USEFUL:          0  USELESS:          0
L1I USEFUL LOAD PREFETCHES:          0 PREFETCH ISSUED TO LOWER LEVEL:          0  ACCURACY: -nan
L1I TIMELY PREFETCHES:          0 LATE PREFETCHES: 0 DROPPED PREFETCHES: 0
L1I COMMIT LATE PREFETCHES: 0 MISSED OPPORTUNITY: 0 LATE IN PQ: 0 UNCOVERED: 0
L1I COMMIT LATE MSHR PREFETCHES: 0
L1I MPKI TOTAL: 0 MSHR LATE: 0 PQ LATE: 0 COMMIT LATE: 0 MISSED OPPORTUNITY: 0 UNCOVERED: 0
L1I PREFETCHES SAME FILL-ORIGIN LEVEL: 0 DIFFERENT FILL-ORIGIN LEVEL: 0
L1I AVERAGE MISS LATENCY: -nan cycles
L1I AVERAGE MISS LATENCY LOAD: -nan cycles
L1I AVERAGE MISS LATENCY PREFETCH: -nan cycles
L1I AVERAGE MSHR OCCUPANCY: 0
L1I MSHR FULL: 0
L1I RQ	ACCESS:   57477536	FORWARD:          0	MERGED:   21229995	TO_CACHE:   36247541

BTB SPEC fills:          0  NON-SPEC fills:          0
BTB Test counter :          0
BTB Leapfrog:          0
BTB MSHR merge:          0
BTB TOTAL     ACCESS:   47143244  HIT:   44382765  MISS:    2760479  HIT %:    94.1445  MISS %:    5.85551   MPKI: 13.8024
BTB BRANCH_DIRECT_JUMP	ACCESS:    4520858  HIT:    4520837  MISS:         21
BTB BRANCH_INDIRECT	ACCESS:          0  HIT:          0  MISS:          0
BTB BRANCH_CONDITIONAL	ACCESS:   30060450  HIT:   30060408  MISS:         42
BTB BRANCH_DIRECT_CALL	ACCESS:    6072091  HIT:    6072078  MISS:         13
BTB BRANCH_INDIRECT_CALL	ACCESS:     208878  HIT:     208870  MISS:          8
BTB BRANCH_RETURN	ACCESS:    6280967  HIT:    3520572  MISS:    2760395
BTB BRANCH_OTHER ACCESS:          0  HIT:          0  MISS:          0

L2C SPEC fills:          0  NON-SPEC fills:    1126587
L2C Test counter :    3065360
L2C Leapfrog:          0
L2C MSHR merge:         54
L2C TOTAL     ACCESS:   22249122  HIT:   14201233  MISS:    8047889  HIT %:    63.8283  MISS %:    36.1717   MPKI: 40.2394
L2C LOAD      TOTAL       ACCESS:    6767160  HIT:    2558439  MISS:    4208721  HIT %:    37.8067  MISS %:    62.1933   MPKI: 21.0436
L2C LOAD      NON_SPEC    ACCESS:    2066339  HIT:     939752  MISS:    1126587  HIT %:    45.4791  MISS %:    54.5209   MPKI: 5.63293
L2C LOAD      SPEC        ACCESS:    4700821  HIT:    1618687  MISS:    3082134  HIT %:    34.4341  MISS %:    65.5659   MPKI: 15.4107
L2C RFO       NON_SPEC    ACCESS:      49532  HIT:      42012  MISS:       7520  HIT %:    84.8179  MISS %:    15.1821   MPKI: 0.0376
L2C PREFETCH  NON_SPEC    ACCESS:    4691656  HIT:    4487902  MISS:     203754  HIT %:    95.6571  MISS %:     4.3429   MPKI: 1.01877
L2C WRITEBACK NON_SPEC    ACCESS:     252775  HIT:     252257  MISS:        518  HIT %:    99.7951  MISS %:   0.204925   MPKI: 0.00259
L2C CLEAN_EVICTION NON_SPEC    ACCESS:    3159694  HIT:     128880  MISS:    3030814  HIT %:    4.07888  MISS %:    95.9211   MPKI: 15.1541
L2C COMMIT LOAD NON_SPEC    ACCESS:      64412  HIT:      23980  MISS:      40432  HIT %:    37.2291  MISS %:    62.7709   MPKI: 0.20216
L2C LOAD TRANSLATION NON_SPEC    ACCESS:    7212238  HIT:    6656630  MISS:     555608  HIT %:    92.2963  MISS %:    7.70368   MPKI: 2.77804
L2C TRANSLATION FROM L1D PREFETCHER NON_SPEC    ACCESS:      51655  HIT:      51133  MISS:        522  HIT %:    98.9894  MISS %:    1.01055   MPKI: 0.00261
L2C PREFETCH  REQUESTED:          0  ISSUED:          0  USEFUL:      57495  USELESS:     147019
L2C USEFUL LOAD PREFETCHES:      57495 PREFETCH ISSUED TO LOWER LEVEL:     203808  ACCURACY: 28.2104
L2C TIMELY PREFETCHES:      57495 LATE PREFETCHES: 54 DROPPED PREFETCHES: 0
L2C COMMIT LATE PREFETCHES: 0 MISSED OPPORTUNITY: 0 LATE IN PQ: 0 UNCOVERED: 0
L2C COMMIT LATE MSHR PREFETCHES: 0
L2C MPKI TOTAL: 21.0436 MSHR LATE: 0.00027 PQ LATE: 0 COMMIT LATE: 0 MISSED OPPORTUNITY: 0 UNCOVERED: 0
L2C PREFETCHES SAME FILL-ORIGIN LEVEL: 134575 DIFFERENT FILL-ORIGIN LEVEL: 0
L2C AVERAGE MISS LATENCY: 80.4319 cycles
L2C AVERAGE MISS LATENCY LOAD: 126.371 cycles
L2C AVERAGE MISS LATENCY PREFETCH: 150.661 cycles
L2C AVERAGE MSHR OCCUPANCY: 0.720153
L2C MSHR FULL: 0
L2C RQ	ACCESS:   14145018	FORWARD:          0	MERGED:          0	TO_CACHE:   14144997
L2C WQ	ACCESS:    3412469	FORWARD:         22	MERGED:          0	TO_CACHE:    3412469
L2C PQ	ACCESS:    4723418	FORWARD:          0	MERGED:          0	TO_CACHE:    4723417

L2C Instructions Evicting Data 0
L2C Translations Evicting Data 482857
L2C Data Evicting Data 1226851
L2C Instructions Evicting Instructions 0
L2C Translations Evicting Instructions 0
L2C Data Evicting Instructions 0
L2C Instructions Evicting Translations 0
L2C Translations Evicting Translations 73273
L2C Data Evicting Translations 151442
L2C Dense regions hint from L2: 0
PSCL5 SPEC fills:          0  NON-SPEC fills:          0
PSCL5 Test counter :          0
PSCL5 Leapfrog:          0
PSCL5 MSHR merge:          0
PSCL5 TOTAL     ACCESS:          0  HIT:          0  MISS:          0  HIT %:       -nan  MISS %:       -nan   MPKI: 0
PSCL5 PREFETCH  REQUESTED:          0  ISSUED:          0  USEFUL:          0  USELESS:          0
PSCL5 USEFUL LOAD PREFETCHES:          0 PREFETCH ISSUED TO LOWER LEVEL:          0  ACCURACY: -nan
PSCL5 TIMELY PREFETCHES:          0 LATE PREFETCHES: 0 DROPPED PREFETCHES: 0
PSCL5 COMMIT LATE PREFETCHES: 0 MISSED OPPORTUNITY: 0 LATE IN PQ: 0 UNCOVERED: 0
PSCL5 COMMIT LATE MSHR PREFETCHES: 0
PSCL5 MPKI TOTAL: 0 MSHR LATE: 0 PQ LATE: 0 COMMIT LATE: 0 MISSED OPPORTUNITY: 0 UNCOVERED: 0
PSCL5 PREFETCHES SAME FILL-ORIGIN LEVEL: 0 DIFFERENT FILL-ORIGIN LEVEL: 0

PSCL4 SPEC fills:          0  NON-SPEC fills:          0
PSCL4 Test counter :          0
PSCL4 Leapfrog:          0
PSCL4 MSHR merge:          0
PSCL4 TOTAL     ACCESS:          0  HIT:          0  MISS:          0  HIT %:       -nan  MISS %:       -nan   MPKI: 0
PSCL4 PREFETCH  REQUESTED:          0  ISSUED:          0  USEFUL:          0  USELESS:          0
PSCL4 USEFUL LOAD PREFETCHES:          0 PREFETCH ISSUED TO LOWER LEVEL:          0  ACCURACY: -nan
PSCL4 TIMELY PREFETCHES:          0 LATE PREFETCHES: 0 DROPPED PREFETCHES: 0
PSCL4 COMMIT LATE PREFETCHES: 0 MISSED OPPORTUNITY: 0 LATE IN PQ: 0 UNCOVERED: 0
PSCL4 COMMIT LATE MSHR PREFETCHES: 0
PSCL4 MPKI TOTAL: 0 MSHR LATE: 0 PQ LATE: 0 COMMIT LATE: 0 MISSED OPPORTUNITY: 0 UNCOVERED: 0
PSCL4 PREFETCHES SAME FILL-ORIGIN LEVEL: 0 DIFFERENT FILL-ORIGIN LEVEL: 0

PSCL3 SPEC fills:          0  NON-SPEC fills:          0
PSCL3 Test counter :          0
PSCL3 Leapfrog:          0
PSCL3 MSHR merge:          0
PSCL3 TOTAL     ACCESS:          0  HIT:          0  MISS:          0  HIT %:       -nan  MISS %:       -nan   MPKI: 0
PSCL3 PREFETCH  REQUESTED:          0  ISSUED:          0  USEFUL:          0  USELESS:          0
PSCL3 USEFUL LOAD PREFETCHES:          0 PREFETCH ISSUED TO LOWER LEVEL:          0  ACCURACY: -nan
PSCL3 TIMELY PREFETCHES:          0 LATE PREFETCHES: 0 DROPPED PREFETCHES: 0
PSCL3 COMMIT LATE PREFETCHES: 0 MISSED OPPORTUNITY: 0 LATE IN PQ: 0 UNCOVERED: 0
PSCL3 COMMIT LATE MSHR PREFETCHES: 0
PSCL3 MPKI TOTAL: 0 MSHR LATE: 0 PQ LATE: 0 COMMIT LATE: 0 MISSED OPPORTUNITY: 0 UNCOVERED: 0
PSCL3 PREFETCHES SAME FILL-ORIGIN LEVEL: 0 DIFFERENT FILL-ORIGIN LEVEL: 0

PSCL2 SPEC fills:          0  NON-SPEC fills:          0
PSCL2 Test counter :          0
PSCL2 Leapfrog:          0
PSCL2 MSHR merge:          0
PSCL2 TOTAL     ACCESS:          0  HIT:          0  MISS:          0  HIT %:       -nan  MISS %:       -nan   MPKI: 0
PSCL2 PREFETCH  REQUESTED:          0  ISSUED:          0  USEFUL:          0  USELESS:          0
PSCL2 USEFUL LOAD PREFETCHES:          0 PREFETCH ISSUED TO LOWER LEVEL:          0  ACCURACY: -nan
PSCL2 TIMELY PREFETCHES:          0 LATE PREFETCHES: 0 DROPPED PREFETCHES: 0
PSCL2 COMMIT LATE PREFETCHES: 0 MISSED OPPORTUNITY: 0 LATE IN PQ: 0 UNCOVERED: 0
PSCL2 COMMIT LATE MSHR PREFETCHES: 0
PSCL2 MPKI TOTAL: 0 MSHR LATE: 0 PQ LATE: 0 COMMIT LATE: 0 MISSED OPPORTUNITY: 0 UNCOVERED: 0
PSCL2 PREFETCHES SAME FILL-ORIGIN LEVEL: 0 DIFFERENT FILL-ORIGIN LEVEL: 0

LLC SPEC fills:          0  NON-SPEC fills:     703918
LLC Test counter :    2100405
LLC Leapfrog:          0
LLC MSHR merge:          0
LLC TOTAL     ACCESS:    8237657  HIT:    3129678  MISS:    5107979  HIT %:    37.9923  MISS %:    62.0077   MPKI: 25.5399
LLC LOAD      TOTAL       ACCESS:    4208648  HIT:    1592780  MISS:    2615868  HIT %:    37.8454  MISS %:    62.1546   MPKI: 13.0793
LLC LOAD      NON_SPEC    ACCESS:    1126575  HIT:     422657  MISS:     703918  HIT %:     37.517  MISS %:     62.483   MPKI: 3.51959
LLC LOAD      SPEC        ACCESS:    3082073  HIT:    1170123  MISS:    1911950  HIT %:    37.9655  MISS %:    62.0345   MPKI: 9.55975
LLC RFO       NON_SPEC    ACCESS:       7520  HIT:       4588  MISS:       2932  HIT %:    61.0106  MISS %:    38.9894   MPKI: 0.01466
LLC PREFETCH  NON_SPEC    ACCESS:     203806  HIT:      70038  MISS:     133768  HIT %:     34.365  MISS %:     65.635   MPKI: 0.66884
LLC WRITEBACK NON_SPEC    ACCESS:     155761  HIT:     155596  MISS:        165  HIT %:    99.8941  MISS %:   0.105932   MPKI: 0.000825
LLC CLEAN_EVICTION NON_SPEC    ACCESS:    3065360  HIT:    1069814  MISS:    1995546  HIT %:    34.9001  MISS %:    65.0999   MPKI: 9.97773
LLC COMMIT LOAD NON_SPEC    ACCESS:      40432  HIT:      22470  MISS:      17962  HIT %:    55.5748  MISS %:    44.4252   MPKI: 0.08981
LLC LOAD TRANSLATION NON_SPEC    ACCESS:     555608  HIT:     214135  MISS:     341473  HIT %:    38.5407  MISS %:    61.4593   MPKI: 1.70736
LLC TRANSLATION FROM L1D PREFETCHER NON_SPEC    ACCESS:        522  HIT:        257  MISS:        265  HIT %:    49.2337  MISS %:    50.7663   MPKI: 0.001325
LLC PREFETCH  REQUESTED:          0  ISSUED:          0  USEFUL:      14968  USELESS:     119874
LLC USEFUL LOAD PREFETCHES:      14968 PREFETCH ISSUED TO LOWER LEVEL:     133768  ACCURACY: 11.1895
LLC TIMELY PREFETCHES:      14968 LATE PREFETCHES: 0 DROPPED PREFETCHES: 0
LLC COMMIT LATE PREFETCHES: 0 MISSED OPPORTUNITY: 0 LATE IN PQ: 0 UNCOVERED: 0
LLC COMMIT LATE MSHR PREFETCHES: 0
LLC MPKI TOTAL: 13.0793 MSHR LATE: 0 PQ LATE: 0 COMMIT LATE: 0 MISSED OPPORTUNITY: 0 UNCOVERED: 0
LLC PREFETCHES SAME FILL-ORIGIN LEVEL: 0 DIFFERENT FILL-ORIGIN LEVEL: 0
LLC AVERAGE MISS LATENCY: 102.575 cycles
LLC AVERAGE MISS LATENCY LOAD: 165.447 cycles
LLC AVERAGE MISS LATENCY PREFETCH: 183.461 cycles
LLC AVERAGE MSHR OCCUPANCY: 0.756821
LLC MSHR FULL: 0
LLC RQ	ACCESS:    4812749	FORWARD:          0	MERGED:          0	TO_CACHE:    4812730
LLC WQ	ACCESS:    3221121	FORWARD:         21	MERGED:          0	TO_CACHE:    3221121
LLC PQ	ACCESS:     203808	FORWARD:          0	MERGED:          0	TO_CACHE:     203806

LLC Dense regions hint to LLC: 0

RAW hits: 1748175
Loads Generated: 69386095
Loads sent to L1D: 67637922
Stores Generated: 20248054
Stores sent to L1D: 20248058
Major fault: 0 Minor fault: 167265
Allocated PAGES: 167265
Total Load insts: 83813236
Total Non-spec loads: 18665683
Percentage of speculative loads: 77.7294

LeapFrogging counter: 5
Commit hits: 42425618 miss: 8345051
Commit hit %: 83.5632 miss %: 16.4368
Commits not translated: 0
Loads retired: 6767278
Stores retired: 20248058
Cache fills: 6767278
L1D response latency: 90.9828 cycles
Load retirement latency: 184.743 cycles
OOO test counter: 0
Discarded buffer inserts: 42425618 hits: 3613 hit %: 0.00851608
Filter prediction accuracy: 99.9926
ALL MISSES SIZE: 7490
LATENCY_FILL: 90.8366 6760628
LATENCY_FILL_ROB: 126.42 6756946
test counter pref: 66449253
Max ROB Extended: 17

DRAM Statistics
 CHANNEL 0
 RQ ROW_BUFFER_HIT:      73616  ROW_BUFFER_MISS:    3038512
 DBUS_CONGESTED:        993
 WQ ROW_BUFFER_HIT:     772050  ROW_BUFFER_MISS:    1435376  FULL:          0

 AVG_CONGESTED_CYCLE: 5
 All warmup complete: 2
Channel 0 Bank busy for read cycles: 0
Channel 0 Bank busy for write cycles: 0
Channel 0
Rank 0
0banks busy for read cycles: 341948841
0banks busy for write cycles: 243889
1banks busy for read cycles: 149160469
1banks busy for write cycles: 44831900
2banks busy for read cycles: 88444913
2banks busy for write cycles: 34019895
3banks busy for read cycles: 26075936
3banks busy for write cycles: 24197174
4banks busy for read cycles: 10356545
4banks busy for write cycles: 17149137
5banks busy for read cycles: 2167995
5banks busy for write cycles: 13056083
6banks busy for read cycles: 487935
6banks busy for write cycles: 11841604
7banks busy for read cycles: 79599
7banks busy for write cycles: 12718291
8banks busy for read cycles: 5825
8banks busy for write cycles: 10779199

CPU 0 Branch Prediction Accuracy: 94.7162% MPKI: 13.0983 Average ROB Occupancy at Mispredict: 22.919
Branch types
NOT_BRANCH: 150420417 75.2102%
BRANCH_DIRECT_JUMP: 4520858 2.26043%
BRANCH_INDIRECT: 0 0%
BRANCH_CONDITIONAL: 32496416 16.2482%
BRANCH_DIRECT_CALL: 6072091 3.03605%
BRANCH_INDIRECT_CALL: 208878 0.104439%
BRANCH_RETURN: 6280967 3.14048%
BRANCH_OTHER: 0 0%

DRAM PAGES: 1048576
Allocated PAGES: 167265
