
*** ChampSim Multicore Out-of-Order Simulator ***

Warmup Instructions: 50000000
Simulation Instructions: 200000000
Number of CPUs: 1
LLC sets: 2048
LLC ways: 16
L0D sets: 16
L0D ways: 2
ROB size: 352
LQ size: 128
SQ size: 72
Secure Berti: ON
Berti: ON
Berti Fill: ON
On commit prefetching: OFF
Hit-based filter: ON
Time-guarding: ON
Free-slotting: ON
Leap-frogging: ON
Train prefetcher on L0D bypass: OFF
No translation penalty for prefetchers: OFF
Prefetch to L0D only: OFF
Prefetch to L1D only: OFF
Clean evictions: ON
Commit loads: ON
Commit write: ON
Fill commit loads to L2C, LLC: ON
DRAM IO FREQUENCY: 6400
ROB SIZE: 352
Off-chip DRAM Size: 4096 MB Channels: 1 Width: 64-bit Data Rate: 6400 MT/s
CPU 0 runs /home/sumon/secure_berti/GhostMinion/../../traces/spec/605.mcf_s-1644B.champsimtrace.xz
.xz
BTB has LRU replacement policy
ITLB has LRU replacement policy
DTLB has LRU replacement policy
STLB has LRU replacement policy
L1I has LRU replacement policy
L0D has LRU replacement policy
Berti version on_commit
History Sets: 8
History Ways: 16
BERTI Size: 16
BERTI Stride Size: 16
L1D has LRU replacement policy
L2C has LRU replacement policy
LLC has LRU replacement policy
Heartbeat CPU 0 instructions: 10000003 cycles: 14285321 heartbeat IPC: 0.700019 cumulative IPC: 0.700019 (Simulation time: 0 hr 2 min 46 sec) 
Heartbeat CPU 0 instructions: 20000001 cycles: 28558918 heartbeat IPC: 0.700594 cumulative IPC: 0.700307 (Simulation time: 0 hr 5 min 29 sec) 
Heartbeat CPU 0 instructions: 30000002 cycles: 42852569 heartbeat IPC: 0.699611 cumulative IPC: 0.700075 (Simulation time: 0 hr 8 min 7 sec) 
Heartbeat CPU 0 instructions: 40000001 cycles: 57133284 heartbeat IPC: 0.700245 cumulative IPC: 0.700117 (Simulation time: 0 hr 10 min 33 sec) 
Heartbeat CPU 0 instructions: 50000000 cycles: 71411367 heartbeat IPC: 0.700374 cumulative IPC: 0.700169 (Simulation time: 0 hr 12 min 59 sec) 

Warmup complete CPU 0 instructions: 50000004 cycles: 71411368 (Simulation time: 0 hr 12 min 59 sec) 

Heartbeat CPU 0 instructions: 60000001 cycles: 141159117 heartbeat IPC: 0.143374 cumulative IPC: 0.143374 (Simulation time: 0 hr 16 min 34 sec) 
Heartbeat CPU 0 instructions: 70000003 cycles: 211202529 heartbeat IPC: 0.142769 cumulative IPC: 0.143071 (Simulation time: 0 hr 20 min 11 sec) 
Heartbeat CPU 0 instructions: 80000000 cycles: 281531166 heartbeat IPC: 0.14219 cumulative IPC: 0.142776 (Simulation time: 0 hr 23 min 44 sec) 
Heartbeat CPU 0 instructions: 90000000 cycles: 351964004 heartbeat IPC: 0.141979 cumulative IPC: 0.142576 (Simulation time: 0 hr 27 min 9 sec) 
Heartbeat CPU 0 instructions: 100000003 cycles: 423371748 heartbeat IPC: 0.140041 cumulative IPC: 0.142061 (Simulation time: 0 hr 31 min 6 sec) 
Heartbeat CPU 0 instructions: 110000000 cycles: 494755199 heartbeat IPC: 0.140088 cumulative IPC: 0.141729 (Simulation time: 0 hr 34 min 36 sec) 
Heartbeat CPU 0 instructions: 120000001 cycles: 566395976 heartbeat IPC: 0.139585 cumulative IPC: 0.141419 (Simulation time: 0 hr 37 min 3 sec) 
Heartbeat CPU 0 instructions: 130000001 cycles: 637726869 heartbeat IPC: 0.140192 cumulative IPC: 0.141264 (Simulation time: 0 hr 38 min 54 sec) 
Heartbeat CPU 0 instructions: 140000003 cycles: 707313693 heartbeat IPC: 0.143705 cumulative IPC: 0.141531 (Simulation time: 0 hr 40 min 36 sec) 
Heartbeat CPU 0 instructions: 150000002 cycles: 774247865 heartbeat IPC: 0.149401 cumulative IPC: 0.142281 (Simulation time: 0 hr 42 min 11 sec) 
Heartbeat CPU 0 instructions: 160000002 cycles: 840213163 heartbeat IPC: 0.151595 cumulative IPC: 0.14308 (Simulation time: 0 hr 43 min 44 sec) 
Heartbeat CPU 0 instructions: 170000000 cycles: 907976743 heartbeat IPC: 0.147572 cumulative IPC: 0.143444 (Simulation time: 0 hr 45 min 13 sec) 
Heartbeat CPU 0 instructions: 180000002 cycles: 976102448 heartbeat IPC: 0.146787 cumulative IPC: 0.143695 (Simulation time: 0 hr 46 min 43 sec) 
Heartbeat CPU 0 instructions: 190000000 cycles: 1043837983 heartbeat IPC: 0.147633 cumulative IPC: 0.14397 (Simulation time: 0 hr 48 min 12 sec) 
Heartbeat CPU 0 instructions: 200000001 cycles: 1112837662 heartbeat IPC: 0.144928 cumulative IPC: 0.144033 (Simulation time: 0 hr 49 min 40 sec) 
Heartbeat CPU 0 instructions: 210000003 cycles: 1181801055 heartbeat IPC: 0.145004 cumulative IPC: 0.144094 (Simulation time: 0 hr 51 min 9 sec) 
Heartbeat CPU 0 instructions: 220000000 cycles: 1250260533 heartbeat IPC: 0.146072 cumulative IPC: 0.144208 (Simulation time: 0 hr 52 min 37 sec) 
Heartbeat CPU 0 instructions: 230000003 cycles: 1318949185 heartbeat IPC: 0.145584 cumulative IPC: 0.144284 (Simulation time: 0 hr 54 min 4 sec) 
Heartbeat CPU 0 instructions: 240000000 cycles: 1387905359 heartbeat IPC: 0.14502 cumulative IPC: 0.144323 (Simulation time: 0 hr 55 min 31 sec) 
Heartbeat CPU 0 instructions: 250000000 cycles: 1456980159 heartbeat IPC: 0.144771 cumulative IPC: 0.144345 (Simulation time: 0 hr 56 min 58 sec) 
Finished CPU 0 instructions: 200000000 cycles: 1385568793 cumulative IPC: 0.144345 (Simulation time: 0 hr 56 min 58 sec) 
 Instruction ID: 250000247

ChampSim completed all CPUs

Region of Interest Statistics

CPU 0 cumulative IPC: 0.144345 instructions: 200000000 cycles: 1385568793
ITLB SPEC fills:          0  NON-SPEC fills:          0
ITLB Test counter :          0
ITLB Leapfrog:          0
ITLB MSHR merge:          0
ITLB TOTAL     ACCESS:   33652556  HIT:   33652556  MISS:          0  HIT %:        100  MISS %:          0   MPKI: 0
ITLB LOAD TRANSLATION NON_SPEC    ACCESS:   33652556  HIT:   33652556  MISS:          0  HIT %:        100  MISS %:          0   MPKI: 0
ITLB PREFETCH  REQUESTED:          0  ISSUED:          0  USEFUL:          0  USELESS:          0
ITLB USEFUL LOAD PREFETCHES:          0 PREFETCH ISSUED TO LOWER LEVEL:          0  ACCURACY: -nan
ITLB TIMELY PREFETCHES:          0 LATE PREFETCHES: 0 DROPPED PREFETCHES: 0
ITLB COMMIT LATE PREFETCHES: 0 MISSED OPPORTUNITY: 0 LATE IN PQ: 0 UNCOVERED: 0
ITLB COMMIT LATE MSHR PREFETCHES: 0
ITLB MPKI TOTAL: 0 MSHR LATE: 0 PQ LATE: 0 COMMIT LATE: 0 MISSED OPPORTUNITY: 0 UNCOVERED: 0
ITLB PREFETCHES SAME FILL-ORIGIN LEVEL: 0 DIFFERENT FILL-ORIGIN LEVEL: 0
ITLB AVERAGE MISS LATENCY: -nan cycles
ITLB AVERAGE MISS LATENCY LOAD: -nan cycles
ITLB AVERAGE MISS LATENCY PREFETCH: -nan cycles
ITLB AVERAGE MSHR OCCUPANCY: 0
ITLB MSHR FULL: 0
ITLB RQ	ACCESS:   33655060	FORWARD:          0	MERGED:       2505	TO_CACHE:   33652555

DTLB SPEC fills:          0  NON-SPEC fills:          0
DTLB Test counter :          0
DTLB Leapfrog:          0
DTLB MSHR merge:          0
DTLB TOTAL     ACCESS:   79052774  HIT:   73418990  MISS:    5633784  HIT %:    92.8734  MISS %:    7.12661   MPKI: 28.1689
DTLB LOAD TRANSLATION NON_SPEC    ACCESS:   79052774  HIT:   73418990  MISS:    5633784  HIT %:    92.8734  MISS %:    7.12661   MPKI: 28.1689
DTLB PREFETCH  REQUESTED:          0  ISSUED:          0  USEFUL:          0  USELESS:          0
DTLB USEFUL LOAD PREFETCHES:          0 PREFETCH ISSUED TO LOWER LEVEL:          0  ACCURACY: -nan
DTLB TIMELY PREFETCHES:          0 LATE PREFETCHES: 0 DROPPED PREFETCHES: 0
DTLB COMMIT LATE PREFETCHES: 0 MISSED OPPORTUNITY: 0 LATE IN PQ: 0 UNCOVERED: 0
DTLB COMMIT LATE MSHR PREFETCHES: 0
DTLB MPKI TOTAL: 0 MSHR LATE: 0 PQ LATE: 0 COMMIT LATE: 0 MISSED OPPORTUNITY: 0 UNCOVERED: 0
DTLB PREFETCHES SAME FILL-ORIGIN LEVEL: 0 DIFFERENT FILL-ORIGIN LEVEL: 0
DTLB AVERAGE MISS LATENCY: 873.902 cycles
DTLB AVERAGE MISS LATENCY LOAD: -nan cycles
DTLB AVERAGE MISS LATENCY PREFETCH: -nan cycles
DTLB AVERAGE MSHR OCCUPANCY: 3.15676
DTLB MSHR FULL: 8.31116e-05
DTLB RQ	ACCESS:  125942580	FORWARD:          0	MERGED:   26948468	TO_CACHE:   98994112

STLB SPEC fills:          0  NON-SPEC fills:          0
STLB Test counter :          0
STLB Leapfrog:          0
STLB MSHR merge:          0
STLB TOTAL     ACCESS:    8582513  HIT:    3750878  MISS:    4831635  HIT %:    43.7037  MISS %:    56.2963   MPKI: 24.1582
STLB LOAD TRANSLATION NON_SPEC    ACCESS:    5633784  HIT:     815705  MISS:    4818079  HIT %:    14.4788  MISS %:    85.5212   MPKI: 24.0904
STLB TRANSLATION FROM L1D PREFETCHER NON_SPEC    ACCESS:    2948729  HIT:    2935173  MISS:      13556  HIT %:    99.5403  MISS %:   0.459723   MPKI: 0.06778
STLB PREFETCH  REQUESTED:          0  ISSUED:          0  USEFUL:       8616  USELESS:       4939
STLB USEFUL LOAD PREFETCHES:       8616 PREFETCH ISSUED TO LOWER LEVEL:          0  ACCURACY: inf
STLB TIMELY PREFETCHES:       8616 LATE PREFETCHES: 71451 DROPPED PREFETCHES: 1202184
STLB COMMIT LATE PREFETCHES: 0 MISSED OPPORTUNITY: 0 LATE IN PQ: 0 UNCOVERED: 0
STLB COMMIT LATE MSHR PREFETCHES: 0
STLB MPKI TOTAL: 0 MSHR LATE: 0.357255 PQ LATE: 0 COMMIT LATE: 0 MISSED OPPORTUNITY: 0 UNCOVERED: 0
STLB PREFETCHES SAME FILL-ORIGIN LEVEL: 0 DIFFERENT FILL-ORIGIN LEVEL: 0
STLB AVERAGE MISS LATENCY: 1010.23 cycles
STLB AVERAGE MISS LATENCY LOAD: -nan cycles
STLB AVERAGE MISS LATENCY PREFETCH: -nan cycles
STLB AVERAGE MSHR OCCUPANCY: 3.43335
STLB MSHR FULL: 0
STLB RQ	ACCESS:   39794478	FORWARD:          0	MERGED:   29179430	TO_CACHE:   10615048

STLB Hit, L1D data hit: 0
STLB Hit, L2C data hit: 0
STLB Hit, LLC data hit: 0
STLB Hit, LLC data miss: 0
STLB STLB hints to L2: 0
L0D SPEC fills:   22194110  NON-SPEC fills:          0
L0D TimeGuard Request with older TS:    2772617 Restricted eviction:     549563 read:    5306628
L0D Test counter :          0
L0D Leapfrog:          0
L0D MSHR merge:    1609868
L0D TOTAL     ACCESS:   54359612  HIT:   16919314  MISS:   37440298  HIT %:    31.1248  MISS %:    68.8752   MPKI: 187.201
L0D LOAD      TOTAL       ACCESS:   54359612  HIT:   16919314  MISS:   37440298  HIT %:    31.1248  MISS %:    68.8752   MPKI: 187.201
L0D LOAD      NON_SPEC    ACCESS:   18765983  HIT:    4068513  MISS:   14697470  HIT %:    21.6803  MISS %:    78.3197   MPKI: 73.4874
L0D LOAD      SPEC        ACCESS:   35593629  HIT:   12850801  MISS:   22742828  HIT %:    36.1042  MISS %:    63.8958   MPKI: 113.714
L0D PREFETCH  REQUESTED:          0  ISSUED:          0  USEFUL:          0  USELESS:          0
L0D USEFUL LOAD PREFETCHES:          0 PREFETCH ISSUED TO LOWER LEVEL:          0  ACCURACY: -nan
L0D TIMELY PREFETCHES:          0 LATE PREFETCHES: 0 DROPPED PREFETCHES: 0
L0D COMMIT LATE PREFETCHES: 0 MISSED OPPORTUNITY: 0 LATE IN PQ: 0 UNCOVERED: 0
L0D COMMIT LATE MSHR PREFETCHES: 0
L0D MPKI TOTAL: 195.251 MSHR LATE: 0 PQ LATE: 0 COMMIT LATE: 0 MISSED OPPORTUNITY: 0 UNCOVERED: 0
L0D PREFETCHES SAME FILL-ORIGIN LEVEL: 0 DIFFERENT FILL-ORIGIN LEVEL: 0
L0D AVERAGE MISS LATENCY: 16.7611 cycles
L0D AVERAGE MISS LATENCY LOAD: 16.7611 cycles
L0D AVERAGE MISS LATENCY PREFETCH: -nan cycles
L0D AVERAGE MSHR OCCUPANCY: 0.816285
L0D MSHR FULL: 7.12884e-06
L0D RQ	ACCESS:   69855471	FORWARD:          0	MERGED:   13885993	TO_CACHE:   55969478
L0D WQ	ACCESS:   69973102	FORWARD:          0	MERGED:          0	TO_CACHE:   69973102

L1D SPEC fills:          0  NON-SPEC fills:     168616
L1D Test counter :    3791383
L1D Leapfrog:          0
L1D MSHR merge:     179405
L1D TOTAL     ACCESS:  105997902  HIT:   83652276  MISS:   22345626  HIT %:    78.9188  MISS %:    21.0812   MPKI: 111.728
L1D LOAD      TOTAL       ACCESS:   37439418  HIT:   32898330  MISS:    4541088  HIT %:    87.8708  MISS %:    12.1292   MPKI: 22.7054
L1D LOAD      NON_SPEC    ACCESS:   14696876  HIT:   14528260  MISS:     168616  HIT %:    98.8527  MISS %:    1.14729   MPKI: 0.84308
L1D LOAD      SPEC        ACCESS:   22742542  HIT:   18370070  MISS:    4372472  HIT %:     80.774  MISS %:     19.226   MPKI: 21.8624
L1D RFO       NON_SPEC    ACCESS:   37760887  HIT:   29012155  MISS:    8748732  HIT %:    76.8312  MISS %:    23.1688   MPKI: 43.7437
L1D PREFETCH  NON_SPEC    ACCESS:   26142028  HIT:   21409504  MISS:    4732524  HIT %:    81.8969  MISS %:    18.1031   MPKI: 23.6626
L1D COMMIT LOAD NON_SPEC    ACCESS:     465162  HIT:     247533  MISS:     217629  HIT %:    53.2144  MISS %:    46.7856   MPKI: 1.08814
L1D COMMIT WRITE NON_SPEC    ACCESS:    4190407  HIT:      84754  MISS:    4105653  HIT %:    2.02257  MISS %:    97.9774   MPKI: 20.5283
L1D PREFETCH  REQUESTED:   79710404  ISSUED:   38547770  USEFUL:    4713017  USELESS:      19499
L1D USEFUL LOAD PREFETCHES:    4713017 PREFETCH ISSUED TO LOWER LEVEL:    6824731  ACCURACY: 69.0579
L1D TIMELY PREFETCHES:    4713017 LATE PREFETCHES: 179024 DROPPED PREFETCHES: 5330870
L1D COMMIT LATE PREFETCHES: 0 MISSED OPPORTUNITY: 0 LATE IN PQ: 0 UNCOVERED: 0
L1D COMMIT LATE MSHR PREFETCHES: 0
L1D MPKI TOTAL: 22.7098 MSHR LATE: 0.89512 PQ LATE: 0 COMMIT LATE: 0 MISSED OPPORTUNITY: 0 UNCOVERED: 0
L1D PREFETCHES SAME FILL-ORIGIN LEVEL: 4911654 DIFFERENT FILL-ORIGIN LEVEL: 1913077
L1D AVERAGE MISS LATENCY: 201.063 cycles
L1D AVERAGE MISS LATENCY LOAD: 94.1806 cycles
L1D AVERAGE MISS LATENCY PREFETCH: 323.612 cycles
L1D AVERAGE MSHR OCCUPANCY: 5.99564
L1D MSHR FULL: 0.174702
L1D RQ	ACCESS:   38047173	FORWARD:          0	MERGED:     141192	TO_CACHE:   37905940
L1D WQ	ACCESS:   74163486	FORWARD:         41	MERGED:    1386084	TO_CACHE:   72777402
L1D PQ	ACCESS:   38547770	FORWARD:          0	MERGED:    4387079	TO_CACHE:   34160691

L1D UNIQUE REGIONS ACCESSED: 0
L1D REGIONS CONFLICTS: 0
L1D Cross Page Prefetch Requests: 13383863
L1D Same Page Prefetch Requests: 43759569
L1D ROI Sum of L1D PQ occupancy: 13026630312
L1D PREFETCHES PUSHED FROM L2C: 0
L1I SPEC fills:          0  NON-SPEC fills:          0
L1I Test counter :          0
L1I Leapfrog:          0
L1I MSHR merge:          0
L1I TOTAL     ACCESS:   33655061  HIT:   33655061  MISS:          0  HIT %:        100  MISS %:          0   MPKI: 0
L1I LOAD      TOTAL       ACCESS:   33655061  HIT:   33655061  MISS:          0  HIT %:        100  MISS %:          0   MPKI: 0
L1I LOAD      NON_SPEC    ACCESS:   33655061  HIT:   33655061  MISS:          0  HIT %:        100  MISS %:          0   MPKI: 0
L1I PREFETCH  REQUESTED:          0  ISSUED:          0  USEFUL:          0  USELESS:          0
L1I USEFUL LOAD PREFETCHES:          0 PREFETCH ISSUED TO LOWER LEVEL:          0  ACCURACY: -nan
L1I TIMELY PREFETCHES:          0 LATE PREFETCHES: 0 DROPPED PREFETCHES: 0
L1I COMMIT LATE PREFETCHES: 0 MISSED OPPORTUNITY: 0 LATE IN PQ: 0 UNCOVERED: 0
L1I COMMIT LATE MSHR PREFETCHES: 0
L1I MPKI TOTAL: 0 MSHR LATE: 0 PQ LATE: 0 COMMIT LATE: 0 MISSED OPPORTUNITY: 0 UNCOVERED: 0
L1I PREFETCHES SAME FILL-ORIGIN LEVEL: 0 DIFFERENT FILL-ORIGIN LEVEL: 0
L1I AVERAGE MISS LATENCY: -nan cycles
L1I AVERAGE MISS LATENCY LOAD: -nan cycles
L1I AVERAGE MISS LATENCY PREFETCH: -nan cycles
L1I AVERAGE MSHR OCCUPANCY: 0
L1I MSHR FULL: 0
L1I RQ	ACCESS:   57295224	FORWARD:          0	MERGED:   23640164	TO_CACHE:   33655060

BTB SPEC fills:          0  NON-SPEC fills:          0
BTB Test counter :          0
BTB Leapfrog:          0
BTB MSHR merge:          0
BTB TOTAL     ACCESS:   20480052  HIT:   20480047  MISS:          5  HIT %:        100  MISS %: 2.4414e-05   MPKI: 2.5e-05
BTB BRANCH_DIRECT_JUMP	ACCESS:    2986818  HIT:    2986817  MISS:          1
BTB BRANCH_INDIRECT	ACCESS:          0  HIT:          0  MISS:          0
BTB BRANCH_CONDITIONAL	ACCESS:    8746602  HIT:    8746600  MISS:          2
BTB BRANCH_DIRECT_CALL	ACCESS:    4373316  HIT:    4373315  MISS:          1
BTB BRANCH_INDIRECT_CALL	ACCESS:          0  HIT:          0  MISS:          0
BTB BRANCH_RETURN	ACCESS:    4373316  HIT:    4373315  MISS:          1
BTB BRANCH_OTHER ACCESS:          0  HIT:          0  MISS:          0

L2C SPEC fills:          0  NON-SPEC fills:     121413
L2C Test counter :    3216272
L2C Leapfrog:          0
L2C MSHR merge:      10184
L2C TOTAL     ACCESS:   67789948  HIT:   43275396  MISS:   24514552  HIT %:    63.8375  MISS %:    36.1625   MPKI: 122.573
L2C LOAD      TOTAL       ACCESS:    4362511  HIT:    1188649  MISS:    3173862  HIT %:    27.2469  MISS %:    72.7531   MPKI: 15.8693
L2C LOAD      NON_SPEC    ACCESS:     168069  HIT:      46656  MISS:     121413  HIT %:      27.76  MISS %:      72.24   MPKI: 0.607065
L2C LOAD      SPEC        ACCESS:    4194442  HIT:    1141993  MISS:    3052449  HIT %:    27.2263  MISS %:    72.7737   MPKI: 15.2622
L2C RFO       NON_SPEC    ACCESS:    8748594  HIT:       3265  MISS:    8745329  HIT %:  0.0373203  MISS %:    99.9627   MPKI: 43.7266
L2C PREFETCH  NON_SPEC    ACCESS:    6569828  HIT:    1181425  MISS:    5388403  HIT %:    17.9826  MISS %:    82.0174   MPKI: 26.942
L2C WRITEBACK NON_SPEC    ACCESS:   13606910  HIT:   13606454  MISS:        456  HIT %:    99.9966  MISS %: 0.00335124   MPKI: 0.00228
L2C CLEAN_EVICTION NON_SPEC    ACCESS:    3791381  HIT:     862949  MISS:    2928432  HIT %:    22.7608  MISS %:    77.2392   MPKI: 14.6422
L2C COMMIT LOAD NON_SPEC    ACCESS:     217130  HIT:      71127  MISS:     146003  HIT %:    32.7578  MISS %:    67.2422   MPKI: 0.730015
L2C LOAD TRANSLATION NON_SPEC    ACCESS:   24060171  HIT:   19941563  MISS:    4118608  HIT %:    82.8821  MISS %:    17.1179   MPKI: 20.593
L2C TRANSLATION FROM L1D PREFETCHER NON_SPEC    ACCESS:    6433423  HIT:    6419964  MISS:      13459  HIT %:    99.7908  MISS %:   0.209204   MPKI: 0.067295
L2C PREFETCH  REQUESTED:          0  ISSUED:          0  USEFUL:     101449  USELESS:    5300535
L2C USEFUL LOAD PREFETCHES:     101449 PREFETCH ISSUED TO LOWER LEVEL:    5433430  ACCURACY: 1.86713
L2C TIMELY PREFETCHES:     101449 LATE PREFETCHES: 45027 DROPPED PREFETCHES: 0
L2C COMMIT LATE PREFETCHES: 0 MISSED OPPORTUNITY: 0 LATE IN PQ: 0 UNCOVERED: 0
L2C COMMIT LATE MSHR PREFETCHES: 0
L2C MPKI TOTAL: 15.8693 MSHR LATE: 0.225135 PQ LATE: 0 COMMIT LATE: 0 MISSED OPPORTUNITY: 0 UNCOVERED: 0
L2C PREFETCHES SAME FILL-ORIGIN LEVEL: 1597333 DIFFERENT FILL-ORIGIN LEVEL: 0
L2C AVERAGE MISS LATENCY: 240.606 cycles
L2C AVERAGE MISS LATENCY LOAD: 101.272 cycles
L2C AVERAGE MISS LATENCY PREFETCH: 405.589 cycles
L2C AVERAGE MSHR OCCUPANCY: 3.16955
L2C MSHR FULL: 0.00237152
L2C RQ	ACCESS:   43821916	FORWARD:          0	MERGED:          0	TO_CACHE:   43821832
L2C WQ	ACCESS:   17398303	FORWARD:         85	MERGED:         12	TO_CACHE:   17398291
L2C PQ	ACCESS:    6824655	FORWARD:          0	MERGED:          5	TO_CACHE:    6824649

L2C Instructions Evicting Data 0
L2C Translations Evicting Data 3335635
L2C Data Evicting Data 11625897
L2C Instructions Evicting Instructions 0
L2C Translations Evicting Instructions 0
L2C Data Evicting Instructions 0
L2C Instructions Evicting Translations 0
L2C Translations Evicting Translations 796432
L2C Data Evicting Translations 2775251
L2C Dense regions hint from L2: 0
PSCL5 SPEC fills:          0  NON-SPEC fills:          0
PSCL5 Test counter :          0
PSCL5 Leapfrog:          0
PSCL5 MSHR merge:          0
PSCL5 TOTAL     ACCESS:          0  HIT:          0  MISS:          0  HIT %:       -nan  MISS %:       -nan   MPKI: 0
PSCL5 PREFETCH  REQUESTED:          0  ISSUED:          0  USEFUL:          0  USELESS:          0
PSCL5 USEFUL LOAD PREFETCHES:          0 PREFETCH ISSUED TO LOWER LEVEL:          0  ACCURACY: -nan
PSCL5 TIMELY PREFETCHES:          0 LATE PREFETCHES: 0 DROPPED PREFETCHES: 0
PSCL5 COMMIT LATE PREFETCHES: 0 MISSED OPPORTUNITY: 0 LATE IN PQ: 0 UNCOVERED: 0
PSCL5 COMMIT LATE MSHR PREFETCHES: 0
PSCL5 MPKI TOTAL: 0 MSHR LATE: 0 PQ LATE: 0 COMMIT LATE: 0 MISSED OPPORTUNITY: 0 UNCOVERED: 0
PSCL5 PREFETCHES SAME FILL-ORIGIN LEVEL: 0 DIFFERENT FILL-ORIGIN LEVEL: 0

PSCL4 SPEC fills:          0  NON-SPEC fills:          0
PSCL4 Test counter :          0
PSCL4 Leapfrog:          0
PSCL4 MSHR merge:          0
PSCL4 TOTAL     ACCESS:          0  HIT:          0  MISS:          0  HIT %:       -nan  MISS %:       -nan   MPKI: 0
PSCL4 PREFETCH  REQUESTED:          0  ISSUED:          0  USEFUL:          0  USELESS:          0
PSCL4 USEFUL LOAD PREFETCHES:          0 PREFETCH ISSUED TO LOWER LEVEL:          0  ACCURACY: -nan
PSCL4 TIMELY PREFETCHES:          0 LATE PREFETCHES: 0 DROPPED PREFETCHES: 0
PSCL4 COMMIT LATE PREFETCHES: 0 MISSED OPPORTUNITY: 0 LATE IN PQ: 0 UNCOVERED: 0
PSCL4 COMMIT LATE MSHR PREFETCHES: 0
PSCL4 MPKI TOTAL: 0 MSHR LATE: 0 PQ LATE: 0 COMMIT LATE: 0 MISSED OPPORTUNITY: 0 UNCOVERED: 0
PSCL4 PREFETCHES SAME FILL-ORIGIN LEVEL: 0 DIFFERENT FILL-ORIGIN LEVEL: 0

PSCL3 SPEC fills:          0  NON-SPEC fills:          0
PSCL3 Test counter :          0
PSCL3 Leapfrog:          0
PSCL3 MSHR merge:          0
PSCL3 TOTAL     ACCESS:          0  HIT:          0  MISS:          0  HIT %:       -nan  MISS %:       -nan   MPKI: 0
PSCL3 PREFETCH  REQUESTED:          0  ISSUED:          0  USEFUL:          0  USELESS:          0
PSCL3 USEFUL LOAD PREFETCHES:          0 PREFETCH ISSUED TO LOWER LEVEL:          0  ACCURACY: -nan
PSCL3 TIMELY PREFETCHES:          0 LATE PREFETCHES: 0 DROPPED PREFETCHES: 0
PSCL3 COMMIT LATE PREFETCHES: 0 MISSED OPPORTUNITY: 0 LATE IN PQ: 0 UNCOVERED: 0
PSCL3 COMMIT LATE MSHR PREFETCHES: 0
PSCL3 MPKI TOTAL: 0 MSHR LATE: 0 PQ LATE: 0 COMMIT LATE: 0 MISSED OPPORTUNITY: 0 UNCOVERED: 0
PSCL3 PREFETCHES SAME FILL-ORIGIN LEVEL: 0 DIFFERENT FILL-ORIGIN LEVEL: 0

PSCL2 SPEC fills:          0  NON-SPEC fills:          0
PSCL2 Test counter :          0
PSCL2 Leapfrog:          0
PSCL2 MSHR merge:          0
PSCL2 TOTAL     ACCESS:          0  HIT:          0  MISS:          0  HIT %:       -nan  MISS %:       -nan   MPKI: 0
PSCL2 PREFETCH  REQUESTED:          0  ISSUED:          0  USEFUL:          0  USELESS:          0
PSCL2 USEFUL LOAD PREFETCHES:          0 PREFETCH ISSUED TO LOWER LEVEL:          0  ACCURACY: -nan
PSCL2 TIMELY PREFETCHES:          0 LATE PREFETCHES: 0 DROPPED PREFETCHES: 0
PSCL2 COMMIT LATE PREFETCHES: 0 MISSED OPPORTUNITY: 0 LATE IN PQ: 0 UNCOVERED: 0
PSCL2 COMMIT LATE MSHR PREFETCHES: 0
PSCL2 MPKI TOTAL: 0 MSHR LATE: 0 PQ LATE: 0 COMMIT LATE: 0 MISSED OPPORTUNITY: 0 UNCOVERED: 0
PSCL2 PREFETCHES SAME FILL-ORIGIN LEVEL: 0 DIFFERENT FILL-ORIGIN LEVEL: 0

LLC SPEC fills:          0  NON-SPEC fills:      33010
LLC Test counter :    1370281
LLC Leapfrog:          0
LLC MSHR merge:          0
LLC TOTAL     ACCESS:   38357722  HIT:   19185537  MISS:   19172185  HIT %:    50.0174  MISS %:    49.9826   MPKI: 95.8609
LLC LOAD      TOTAL       ACCESS:    3163637  HIT:    2246719  MISS:     916918  HIT %:     71.017  MISS %:     28.983   MPKI: 4.58459
LLC LOAD      NON_SPEC    ACCESS:     121196  HIT:      88186  MISS:      33010  HIT %:    72.7631  MISS %:    27.2369   MPKI: 0.16505
LLC LOAD      SPEC        ACCESS:    3042441  HIT:    2158533  MISS:     883908  HIT %:    70.9474  MISS %:    29.0526   MPKI: 4.41954
LLC RFO       NON_SPEC    ACCESS:    8710683  HIT:      50148  MISS:    8660535  HIT %:   0.575707  MISS %:    99.4243   MPKI: 43.3027
LLC PREFETCH  NON_SPEC    ACCESS:    5433430  HIT:     132924  MISS:    5300506  HIT %:    2.44641  MISS %:    97.5536   MPKI: 26.5025
LLC WRITEBACK NON_SPEC    ACCESS:   13555829  HIT:   13555572  MISS:        257  HIT %:    99.9981  MISS %: 0.00189586   MPKI: 0.001285
LLC CLEAN_EVICTION NON_SPEC    ACCESS:    3216272  HIT:    2107485  MISS:    1108787  HIT %:    65.5257  MISS %:    34.4743   MPKI: 5.54394
LLC COMMIT LOAD NON_SPEC    ACCESS:     145804  HIT:     117283  MISS:      28521  HIT %:    80.4388  MISS %:    19.5612   MPKI: 0.142605
LLC LOAD TRANSLATION NON_SPEC    ACCESS:    4118608  HIT:     973776  MISS:    3144832  HIT %:    23.6433  MISS %:    76.3567   MPKI: 15.7242
LLC TRANSLATION FROM L1D PREFETCHER NON_SPEC    ACCESS:      13459  HIT:       1630  MISS:      11829  HIT %:    12.1109  MISS %:    87.8891   MPKI: 0.059145
LLC PREFETCH  REQUESTED:          0  ISSUED:          0  USEFUL:      29580  USELESS:    5282775
LLC USEFUL LOAD PREFETCHES:      29580 PREFETCH ISSUED TO LOWER LEVEL:    5300506  ACCURACY: 0.55806
LLC TIMELY PREFETCHES:      29580 LATE PREFETCHES: 0 DROPPED PREFETCHES: 0
LLC COMMIT LATE PREFETCHES: 0 MISSED OPPORTUNITY: 0 LATE IN PQ: 0 UNCOVERED: 0
LLC COMMIT LATE MSHR PREFETCHES: 0
LLC MPKI TOTAL: 4.58459 MSHR LATE: 0 PQ LATE: 0 COMMIT LATE: 0 MISSED OPPORTUNITY: 0 UNCOVERED: 0
LLC PREFETCHES SAME FILL-ORIGIN LEVEL: 0 DIFFERENT FILL-ORIGIN LEVEL: 0
LLC AVERAGE MISS LATENCY: 275.278 cycles
LLC AVERAGE MISS LATENCY LOAD: 274.205 cycles
LLC AVERAGE MISS LATENCY PREFETCH: 384.224 cycles
LLC AVERAGE MSHR OCCUPANCY: 2.79667
LLC MSHR FULL: 0
LLC RQ	ACCESS:   16152234	FORWARD:          0	MERGED:          0	TO_CACHE:   16152191
LLC WQ	ACCESS:   16772101	FORWARD:         43	MERGED:          0	TO_CACHE:   16772101
LLC PQ	ACCESS:    5433430	FORWARD:          0	MERGED:          0	TO_CACHE:    5433430

LLC Dense regions hint to LLC: 0

RAW hits: 13237616
Loads Generated: 83093086
Loads sent to L1D: 69855471
Stores Generated: 69973136
Stores sent to L1D: 69973102
Major fault: 0 Minor fault: 318411
Allocated PAGES: 318411
Total Load insts: 89119560
Total Non-spec loads: 28471959
Percentage of speculative loads: 68.052

LeapFrogging counter: 1099364
Commit hits: 19728621 miss: 31318333
Commit hit %: 38.648 miss %: 61.352
Commits not translated: 0
Loads retired: 4541086
Stores retired: 69973102
Cache fills: 4541088
L1D response latency: 94.1806 cycles
Load retirement latency: 654.231 cycles
OOO test counter: 0
Discarded buffer inserts: 19728621 hits: 3678 hit %: 0.018643
Filter prediction accuracy: 99.9819
ALL MISSES SIZE: 31704
LATENCY_FILL: 93.0058 4534989
LATENCY_FILL_ROB: 518.454 4504991
test counter pref: 78334158
Max ROB Extended: 13

DRAM Statistics
 CHANNEL 0
 RQ ROW_BUFFER_HIT:    1404044  ROW_BUFFER_MISS:   16656939
 DBUS_CONGESTED:         76
 WQ ROW_BUFFER_HIT:    4799229  ROW_BUFFER_MISS:    9982875  FULL:       8265

 AVG_CONGESTED_CYCLE: 5
 All warmup complete: 2
Channel 0 Bank busy for read cycles: 0
Channel 0 Bank busy for write cycles: 0
Channel 0
Rank 0
0banks busy for read cycles: 3997362
0banks busy for write cycles: 1370
1banks busy for read cycles: 204081589
1banks busy for write cycles: 3298253
2banks busy for read cycles: 216184959
2banks busy for write cycles: 3284804
3banks busy for read cycles: 256177074
3banks busy for write cycles: 3368954
4banks busy for read cycles: 109443137
4banks busy for write cycles: 5937571
5banks busy for read cycles: 48944697
5banks busy for write cycles: 11338569
6banks busy for read cycles: 29362398
6banks busy for write cycles: 26068210
7banks busy for read cycles: 20423835
7banks busy for write cycles: 95132552
8banks busy for read cycles: 30670857
8banks busy for write cycles: 317852603

CPU 0 Branch Prediction Accuracy: 95.2594% MPKI: 5.89096 Average ROB Occupancy at Mispredict: 144.209
Branch types
NOT_BRANCH: 175146465 87.5732%
BRANCH_DIRECT_JUMP: 2986818 1.49341%
BRANCH_INDIRECT: 0 0%
BRANCH_CONDITIONAL: 13119949 6.55997%
BRANCH_DIRECT_CALL: 4373316 2.18666%
BRANCH_INDIRECT_CALL: 0 0%
BRANCH_RETURN: 4373316 2.18666%
BRANCH_OTHER: 0 0%

DRAM PAGES: 1048576
Allocated PAGES: 318411
