
*** ChampSim Multicore Out-of-Order Simulator ***

Warmup Instructions: 50000000
Simulation Instructions: 200000000
Number of CPUs: 1
LLC sets: 2048
LLC ways: 16
L0D sets: 16
L0D ways: 2
ROB size: 352
LQ size: 128
SQ size: 72
Secure Berti: ON
Berti: ON
Berti Fill: ON
On commit prefetching: OFF
Hit-based filter: ON
Time-guarding: ON
Free-slotting: ON
Leap-frogging: ON
Train prefetcher on L0D bypass: OFF
No translation penalty for prefetchers: OFF
Prefetch to L0D only: OFF
Prefetch to L1D only: OFF
Clean evictions: ON
Commit loads: ON
Commit write: ON
Fill commit loads to L2C, LLC: ON
DRAM IO FREQUENCY: 6400
ROB SIZE: 352
Off-chip DRAM Size: 4096 MB Channels: 1 Width: 64-bit Data Rate: 6400 MT/s
CPU 0 runs /home/sumon/secure_berti/GhostMinion/../../traces/spec/605.mcf_s-1152B.champsimtrace.xz
.xz
BTB has LRU replacement policy
ITLB has LRU replacement policy
DTLB has LRU replacement policy
STLB has LRU replacement policy
L1I has LRU replacement policy
L0D has LRU replacement policy
Berti version on_commit
History Sets: 8
History Ways: 16
BERTI Size: 16
BERTI Stride Size: 16
L1D has LRU replacement policy
L2C has LRU replacement policy
LLC has LRU replacement policy
Heartbeat CPU 0 instructions: 10000001 cycles: 5595908 heartbeat IPC: 1.78702 cumulative IPC: 1.78702 (Simulation time: 0 hr 1 min 44 sec) 
Heartbeat CPU 0 instructions: 20000000 cycles: 11148603 heartbeat IPC: 1.80093 cumulative IPC: 1.79395 (Simulation time: 0 hr 3 min 33 sec) 
Heartbeat CPU 0 instructions: 30000000 cycles: 16723211 heartbeat IPC: 1.79385 cumulative IPC: 1.79391 (Simulation time: 0 hr 5 min 16 sec) 
Heartbeat CPU 0 instructions: 40000001 cycles: 22314183 heartbeat IPC: 1.7886 cumulative IPC: 1.79258 (Simulation time: 0 hr 6 min 56 sec) 
Heartbeat CPU 0 instructions: 50000001 cycles: 27892587 heartbeat IPC: 1.79263 cumulative IPC: 1.79259 (Simulation time: 0 hr 8 min 33 sec) 

Warmup complete CPU 0 instructions: 50000001 cycles: 27892587 (Simulation time: 0 hr 8 min 33 sec) 

Heartbeat CPU 0 instructions: 60000001 cycles: 61248194 heartbeat IPC: 0.2998 cumulative IPC: 0.2998 (Simulation time: 0 hr 10 min 21 sec) 
Heartbeat CPU 0 instructions: 70000000 cycles: 94955320 heartbeat IPC: 0.296673 cumulative IPC: 0.298228 (Simulation time: 0 hr 12 min 12 sec) 
Heartbeat CPU 0 instructions: 80000001 cycles: 128257283 heartbeat IPC: 0.300283 cumulative IPC: 0.29891 (Simulation time: 0 hr 13 min 59 sec) 
Heartbeat CPU 0 instructions: 90000003 cycles: 161792099 heartbeat IPC: 0.298198 cumulative IPC: 0.298732 (Simulation time: 0 hr 15 min 48 sec) 
Heartbeat CPU 0 instructions: 100000001 cycles: 195459856 heartbeat IPC: 0.29702 cumulative IPC: 0.298388 (Simulation time: 0 hr 17 min 40 sec) 
Heartbeat CPU 0 instructions: 110000000 cycles: 229069941 heartbeat IPC: 0.29753 cumulative IPC: 0.298244 (Simulation time: 0 hr 19 min 29 sec) 
Heartbeat CPU 0 instructions: 120000002 cycles: 262796547 heartbeat IPC: 0.296502 cumulative IPC: 0.297994 (Simulation time: 0 hr 21 min 18 sec) 
Heartbeat CPU 0 instructions: 130000002 cycles: 296909780 heartbeat IPC: 0.293141 cumulative IPC: 0.297379 (Simulation time: 0 hr 23 min 7 sec) 
Heartbeat CPU 0 instructions: 140000003 cycles: 331473183 heartbeat IPC: 0.289323 cumulative IPC: 0.296462 (Simulation time: 0 hr 24 min 58 sec) 
Heartbeat CPU 0 instructions: 150000001 cycles: 365899760 heartbeat IPC: 0.290473 cumulative IPC: 0.295852 (Simulation time: 0 hr 26 min 58 sec) 
Heartbeat CPU 0 instructions: 160000000 cycles: 400460083 heartbeat IPC: 0.289349 cumulative IPC: 0.295249 (Simulation time: 0 hr 28 min 36 sec) 
Heartbeat CPU 0 instructions: 170000001 cycles: 435940921 heartbeat IPC: 0.281842 cumulative IPC: 0.294083 (Simulation time: 0 hr 30 min 18 sec) 
Heartbeat CPU 0 instructions: 180000003 cycles: 471273600 heartbeat IPC: 0.283024 cumulative IPC: 0.293202 (Simulation time: 0 hr 31 min 54 sec) 
Heartbeat CPU 0 instructions: 190000002 cycles: 507132752 heartbeat IPC: 0.278869 cumulative IPC: 0.292129 (Simulation time: 0 hr 33 min 25 sec) 
Heartbeat CPU 0 instructions: 200000001 cycles: 543352332 heartbeat IPC: 0.276094 cumulative IPC: 0.291002 (Simulation time: 0 hr 34 min 33 sec) 
Heartbeat CPU 0 instructions: 210000002 cycles: 579463776 heartbeat IPC: 0.276921 cumulative IPC: 0.29008 (Simulation time: 0 hr 35 min 42 sec) 
Heartbeat CPU 0 instructions: 220000000 cycles: 614854515 heartbeat IPC: 0.28256 cumulative IPC: 0.289627 (Simulation time: 0 hr 36 min 44 sec) 
Heartbeat CPU 0 instructions: 230000002 cycles: 650255098 heartbeat IPC: 0.282481 cumulative IPC: 0.289221 (Simulation time: 0 hr 37 min 44 sec) 
Heartbeat CPU 0 instructions: 240000000 cycles: 689609826 heartbeat IPC: 0.254099 cumulative IPC: 0.287132 (Simulation time: 0 hr 38 min 46 sec) 
Heartbeat CPU 0 instructions: 250000001 cycles: 726620651 heartbeat IPC: 0.270191 cumulative IPC: 0.286234 (Simulation time: 0 hr 39 min 40 sec) 
Finished CPU 0 instructions: 200000000 cycles: 698728064 cumulative IPC: 0.286234 (Simulation time: 0 hr 39 min 40 sec) 
 Instruction ID: 250000117

ChampSim completed all CPUs

Region of Interest Statistics

CPU 0 cumulative IPC: 0.286234 instructions: 200000000 cycles: 698728064
ITLB SPEC fills:          0  NON-SPEC fills:          0
ITLB Test counter :          0
ITLB Leapfrog:          0
ITLB MSHR merge:          0
ITLB TOTAL     ACCESS:   34628306  HIT:   34628306  MISS:          0  HIT %:        100  MISS %:          0   MPKI: 0
ITLB LOAD TRANSLATION NON_SPEC    ACCESS:   34628306  HIT:   34628306  MISS:          0  HIT %:        100  MISS %:          0   MPKI: 0
ITLB PREFETCH  REQUESTED:          0  ISSUED:          0  USEFUL:          0  USELESS:          0
ITLB USEFUL LOAD PREFETCHES:          0 PREFETCH ISSUED TO LOWER LEVEL:          0  ACCURACY: -nan
ITLB TIMELY PREFETCHES:          0 LATE PREFETCHES: 0 DROPPED PREFETCHES: 0
ITLB COMMIT LATE PREFETCHES: 0 MISSED OPPORTUNITY: 0 LATE IN PQ: 0 UNCOVERED: 0
ITLB COMMIT LATE MSHR PREFETCHES: 0
ITLB MPKI TOTAL: 0 MSHR LATE: 0 PQ LATE: 0 COMMIT LATE: 0 MISSED OPPORTUNITY: 0 UNCOVERED: 0
ITLB PREFETCHES SAME FILL-ORIGIN LEVEL: 0 DIFFERENT FILL-ORIGIN LEVEL: 0
ITLB AVERAGE MISS LATENCY: -nan cycles
ITLB AVERAGE MISS LATENCY LOAD: -nan cycles
ITLB AVERAGE MISS LATENCY PREFETCH: -nan cycles
ITLB AVERAGE MSHR OCCUPANCY: 0
ITLB MSHR FULL: 0
ITLB RQ	ACCESS:   36090526	FORWARD:          0	MERGED:    1462221	TO_CACHE:   34628305

DTLB SPEC fills:          0  NON-SPEC fills:          0
DTLB Test counter :          0
DTLB Leapfrog:          0
DTLB MSHR merge:          0
DTLB TOTAL     ACCESS:   59680387  HIT:   52371764  MISS:    7308623  HIT %:    87.7537  MISS %:    12.2463   MPKI: 36.5431
DTLB LOAD TRANSLATION NON_SPEC    ACCESS:   59680387  HIT:   52371764  MISS:    7308623  HIT %:    87.7537  MISS %:    12.2463   MPKI: 36.5431
DTLB PREFETCH  REQUESTED:          0  ISSUED:          0  USEFUL:          0  USELESS:          0
DTLB USEFUL LOAD PREFETCHES:          0 PREFETCH ISSUED TO LOWER LEVEL:          0  ACCURACY: -nan
DTLB TIMELY PREFETCHES:          0 LATE PREFETCHES: 0 DROPPED PREFETCHES: 0
DTLB COMMIT LATE PREFETCHES: 0 MISSED OPPORTUNITY: 0 LATE IN PQ: 0 UNCOVERED: 0
DTLB COMMIT LATE MSHR PREFETCHES: 0
DTLB MPKI TOTAL: 0 MSHR LATE: 0 PQ LATE: 0 COMMIT LATE: 0 MISSED OPPORTUNITY: 0 UNCOVERED: 0
DTLB PREFETCHES SAME FILL-ORIGIN LEVEL: 0 DIFFERENT FILL-ORIGIN LEVEL: 0
DTLB AVERAGE MISS LATENCY: 11.5132 cycles
DTLB AVERAGE MISS LATENCY LOAD: -nan cycles
DTLB AVERAGE MISS LATENCY PREFETCH: -nan cycles
DTLB AVERAGE MSHR OCCUPANCY: 0.0917223
DTLB MSHR FULL: 0
DTLB RQ	ACCESS:   72820166	FORWARD:          0	MERGED:   12630221	TO_CACHE:   60189945

STLB SPEC fills:          0  NON-SPEC fills:          0
STLB Test counter :          0
STLB Leapfrog:          0
STLB MSHR merge:          0
STLB TOTAL     ACCESS:   13867314  HIT:   13765937  MISS:     101377  HIT %:    99.2689  MISS %:    0.73105   MPKI: 0.506885
STLB LOAD TRANSLATION NON_SPEC    ACCESS:    7308623  HIT:    7208304  MISS:     100319  HIT %:    98.6274  MISS %:    1.37261   MPKI: 0.501595
STLB TRANSLATION FROM L1D PREFETCHER NON_SPEC    ACCESS:    6558691  HIT:    6557633  MISS:       1058  HIT %:    99.9839  MISS %:  0.0161313   MPKI: 0.00529
STLB PREFETCH  REQUESTED:          0  ISSUED:          0  USEFUL:        565  USELESS:        494
STLB USEFUL LOAD PREFETCHES:        565 PREFETCH ISSUED TO LOWER LEVEL:          0  ACCURACY: inf
STLB TIMELY PREFETCHES:        565 LATE PREFETCHES: 37315 DROPPED PREFETCHES: 2168876
STLB COMMIT LATE PREFETCHES: 0 MISSED OPPORTUNITY: 0 LATE IN PQ: 0 UNCOVERED: 0
STLB COMMIT LATE MSHR PREFETCHES: 0
STLB MPKI TOTAL: 0 MSHR LATE: 0.186575 PQ LATE: 0 COMMIT LATE: 0 MISSED OPPORTUNITY: 0 UNCOVERED: 0
STLB PREFETCHES SAME FILL-ORIGIN LEVEL: 0 DIFFERENT FILL-ORIGIN LEVEL: 0
STLB AVERAGE MISS LATENCY: 174.566 cycles
STLB AVERAGE MISS LATENCY LOAD: -nan cycles
STLB AVERAGE MISS LATENCY PREFETCH: -nan cycles
STLB AVERAGE MSHR OCCUPANCY: 0.436874
STLB MSHR FULL: 1.27087e-06
STLB RQ	ACCESS:   54537352	FORWARD:          0	MERGED:   38013231	TO_CACHE:   16524121

STLB Hit, L1D data hit: 0
STLB Hit, L2C data hit: 0
STLB Hit, LLC data hit: 0
STLB Hit, LLC data miss: 0
STLB STLB hints to L2: 0
L0D SPEC fills:   34068906  NON-SPEC fills:          0
L0D TimeGuard Request with older TS:     477494 Restricted eviction:     278097 read:     227735
L0D Test counter :          0
L0D Leapfrog:          0
L0D MSHR merge:    1891533
L0D TOTAL     ACCESS:   53125699  HIT:    3578043  MISS:   49547656  HIT %:    6.73505  MISS %:    93.2649   MPKI: 247.738
L0D LOAD      TOTAL       ACCESS:   53125699  HIT:    3578043  MISS:   49547656  HIT %:    6.73505  MISS %:    93.2649   MPKI: 247.738
L0D LOAD      NON_SPEC    ACCESS:   15774901  HIT:     574244  MISS:   15200657  HIT %:    3.64024  MISS %:    96.3598   MPKI: 76.0033
L0D LOAD      SPEC        ACCESS:   37350798  HIT:    3003799  MISS:   34346999  HIT %:    8.04213  MISS %:    91.9579   MPKI: 171.735
L0D PREFETCH  REQUESTED:          0  ISSUED:          0  USEFUL:          0  USELESS:          0
L0D USEFUL LOAD PREFETCHES:          0 PREFETCH ISSUED TO LOWER LEVEL:          0  ACCURACY: -nan
L0D TIMELY PREFETCHES:          0 LATE PREFETCHES: 0 DROPPED PREFETCHES: 0
L0D COMMIT LATE PREFETCHES: 0 MISSED OPPORTUNITY: 0 LATE IN PQ: 0 UNCOVERED: 0
L0D COMMIT LATE MSHR PREFETCHES: 0
L0D MPKI TOTAL: 257.196 MSHR LATE: 0 PQ LATE: 0 COMMIT LATE: 0 MISSED OPPORTUNITY: 0 UNCOVERED: 0
L0D PREFETCHES SAME FILL-ORIGIN LEVEL: 0 DIFFERENT FILL-ORIGIN LEVEL: 0
L0D AVERAGE MISS LATENCY: 17.4079 cycles
L0D AVERAGE MISS LATENCY LOAD: 17.4079 cycles
L0D AVERAGE MISS LATENCY PREFETCH: -nan cycles
L0D AVERAGE MSHR OCCUPANCY: 1.27805
L0D MSHR FULL: 0.0387587
L0D RQ	ACCESS:   68382610	FORWARD:          0	MERGED:   13365377	TO_CACHE:   55017233
L0D WQ	ACCESS:   17802933	FORWARD:          0	MERGED:          0	TO_CACHE:   17802933

L1D SPEC fills:          0  NON-SPEC fills:    3175370
L1D Test counter :    5060991
L1D Leapfrog:          0
L1D MSHR merge:     365785
L1D TOTAL     ACCESS:  108902165  HIT:   88180149  MISS:   20722016  HIT %:    80.9719  MISS %:    19.0281   MPKI: 103.61
L1D LOAD      TOTAL       ACCESS:   49544823  HIT:   39706957  MISS:    9837866  HIT %:    80.1435  MISS %:    19.8565   MPKI: 49.1893
L1D LOAD      NON_SPEC    ACCESS:   15200344  HIT:   12024974  MISS:    3175370  HIT %:    79.1099  MISS %:    20.8901   MPKI: 15.8768
L1D LOAD      SPEC        ACCESS:   34344479  HIT:   27681983  MISS:    6662496  HIT %:     80.601  MISS %:     19.399   MPKI: 33.3125
L1D RFO       NON_SPEC    ACCESS:   16585437  HIT:   15975874  MISS:     609563  HIT %:    96.3247  MISS %:    3.67529   MPKI: 3.04781
L1D PREFETCH  NON_SPEC    ACCESS:   34715448  HIT:   30926047  MISS:    3789401  HIT %:    89.0844  MISS %:    10.9156   MPKI: 18.947
L1D COMMIT LOAD NON_SPEC    ACCESS:    1728394  HIT:    1385538  MISS:     342856  HIT %:    80.1633  MISS %:    19.8367   MPKI: 1.71428
L1D COMMIT WRITE NON_SPEC    ACCESS:    6328063  HIT:     185733  MISS:    6142330  HIT %:    2.93507  MISS %:    97.0649   MPKI: 30.7116
L1D PREFETCH  REQUESTED:   74343789  ISSUED:   54224884  USEFUL:    3720666  USELESS:      68740
L1D USEFUL LOAD PREFETCHES:    3720666 PREFETCH ISSUED TO LOWER LEVEL:    7403984  ACCURACY: 50.2522
L1D TIMELY PREFETCHES:    3720666 LATE PREFETCHES: 366141 DROPPED PREFETCHES: 7367059
L1D COMMIT LATE PREFETCHES: 0 MISSED OPPORTUNITY: 0 LATE IN PQ: 0 UNCOVERED: 0
L1D COMMIT LATE MSHR PREFETCHES: 0
L1D MPKI TOTAL: 49.2035 MSHR LATE: 1.83071 PQ LATE: 0 COMMIT LATE: 0 MISSED OPPORTUNITY: 0 UNCOVERED: 0
L1D PREFETCHES SAME FILL-ORIGIN LEVEL: 4155542 DIFFERENT FILL-ORIGIN LEVEL: 3248442
L1D AVERAGE MISS LATENCY: 58.4503 cycles
L1D AVERAGE MISS LATENCY LOAD: 61.1396 cycles
L1D AVERAGE MISS LATENCY PREFETCH: 151.736 cycles
L1D AVERAGE MSHR OCCUPANCY: 1.71217
L1D MSHR FULL: 0.0413418
L1D RQ	ACCESS:   52268125	FORWARD:          0	MERGED:     984476	TO_CACHE:   51278911
L1D WQ	ACCESS:   24132425	FORWARD:       4738	MERGED:     138276	TO_CACHE:   23994149
L1D PQ	ACCESS:   54224884	FORWARD:          0	MERGED:    6996155	TO_CACHE:   47228729

L1D UNIQUE REGIONS ACCESSED: 0
L1D REGIONS CONFLICTS: 0
L1D Cross Page Prefetch Requests: 11552105
L1D Same Page Prefetch Requests: 55576195
L1D ROI Sum of L1D PQ occupancy: 1728669754
L1D PREFETCHES PUSHED FROM L2C: 0
L1I SPEC fills:          0  NON-SPEC fills:          0
L1I Test counter :          0
L1I Leapfrog:          0
L1I MSHR merge:          0
L1I TOTAL     ACCESS:   36090527  HIT:   36090525  MISS:          2  HIT %:        100  MISS %: 5.54162e-06   MPKI: 1e-05
L1I LOAD      TOTAL       ACCESS:   36090527  HIT:   36090525  MISS:          2  HIT %:        100  MISS %: 5.54162e-06   MPKI: 1e-05
L1I LOAD      NON_SPEC    ACCESS:   36090527  HIT:   36090525  MISS:          2  HIT %:        100  MISS %: 5.54162e-06   MPKI: 1e-05
L1I PREFETCH  REQUESTED:          0  ISSUED:          0  USEFUL:          0  USELESS:          0
L1I USEFUL LOAD PREFETCHES:          0 PREFETCH ISSUED TO LOWER LEVEL:          0  ACCURACY: -nan
L1I TIMELY PREFETCHES:          0 LATE PREFETCHES: 0 DROPPED PREFETCHES: 0
L1I COMMIT LATE PREFETCHES: 0 MISSED OPPORTUNITY: 0 LATE IN PQ: 0 UNCOVERED: 0
L1I COMMIT LATE MSHR PREFETCHES: 0
L1I MPKI TOTAL: 1e-05 MSHR LATE: 0 PQ LATE: 0 COMMIT LATE: 0 MISSED OPPORTUNITY: 0 UNCOVERED: 0
L1I PREFETCHES SAME FILL-ORIGIN LEVEL: 0 DIFFERENT FILL-ORIGIN LEVEL: 0
L1I AVERAGE MISS LATENCY: 214 cycles
L1I AVERAGE MISS LATENCY LOAD: 214 cycles
L1I AVERAGE MISS LATENCY PREFETCH: -nan cycles
L1I AVERAGE MSHR OCCUPANCY: 2.77081e-08
L1I MSHR FULL: 0
L1I RQ	ACCESS:   55214758	FORWARD:          0	MERGED:   19124232	TO_CACHE:   36090526

BTB SPEC fills:          0  NON-SPEC fills:          0
BTB Test counter :          0
BTB Leapfrog:          0
BTB MSHR merge:          0
BTB TOTAL     ACCESS:   49743916  HIT:   48131262  MISS:    1612654  HIT %:    96.7581  MISS %:    3.24191   MPKI: 8.06327
BTB BRANCH_DIRECT_JUMP	ACCESS:    5836928  HIT:    5836891  MISS:         37
BTB BRANCH_INDIRECT	ACCESS:          0  HIT:          0  MISS:          0
BTB BRANCH_CONDITIONAL	ACCESS:   36112465  HIT:   36112386  MISS:         79
BTB BRANCH_DIRECT_CALL	ACCESS:    3647058  HIT:    3647040  MISS:         18
BTB BRANCH_INDIRECT_CALL	ACCESS:     250202  HIT:     250194  MISS:          8
BTB BRANCH_RETURN	ACCESS:    3897263  HIT:    2284751  MISS:    1612512
BTB BRANCH_OTHER ACCESS:          0  HIT:          0  MISS:          0

L2C SPEC fills:          0  NON-SPEC fills:    2284685
L2C Test counter :    4981649
L2C Leapfrog:          0
L2C MSHR merge:      28446
L2C TOTAL     ACCESS:   34934441  HIT:   18552078  MISS:   16382363  HIT %:    53.1054  MISS %:    46.8946   MPKI: 81.9118
L2C LOAD      TOTAL       ACCESS:    9474688  HIT:    2323230  MISS:    7151458  HIT %:    24.5204  MISS %:    75.4796   MPKI: 35.7573
L2C LOAD      NON_SPEC    ACCESS:    3171360  HIT:     886673  MISS:    2284687  HIT %:    27.9588  MISS %:    72.0412   MPKI: 11.4234
L2C LOAD      SPEC        ACCESS:    6303328  HIT:    1436557  MISS:    4866771  HIT %:    22.7905  MISS %:    77.2095   MPKI: 24.3339
L2C RFO       NON_SPEC    ACCESS:     609487  HIT:     311883  MISS:     297604  HIT %:    51.1714  MISS %:    48.8286   MPKI: 1.48802
L2C PREFETCH  NON_SPEC    ACCESS:    7229920  HIT:    3035568  MISS:    4194352  HIT %:    41.9862  MISS %:    58.0138   MPKI: 20.9718
L2C WRITEBACK NON_SPEC    ACCESS:     686579  HIT:     686578  MISS:          1  HIT %:    99.9999  MISS %: 0.00014565   MPKI: 5e-06
L2C CLEAN_EVICTION NON_SPEC    ACCESS:    5060991  HIT:     608217  MISS:    4452774  HIT %:    12.0177  MISS %:    87.9823   MPKI: 22.2639
L2C COMMIT LOAD NON_SPEC    ACCESS:     339667  HIT:      91803  MISS:     247864  HIT %:    27.0274  MISS %:    72.9726   MPKI: 1.23932
L2C LOAD TRANSLATION NON_SPEC    ACCESS:     501136  HIT:     472480  MISS:      28656  HIT %:    94.2818  MISS %:    5.71821   MPKI: 0.14328
L2C TRANSLATION FROM L1D PREFETCHER NON_SPEC    ACCESS:   11031973  HIT:   11022319  MISS:       9654  HIT %:    99.9125  MISS %:  0.0875093   MPKI: 0.04827
L2C PREFETCH  REQUESTED:          0  ISSUED:          0  USEFUL:     372958  USELESS:    3831424
L2C USEFUL LOAD PREFETCHES:     372958 PREFETCH ISSUED TO LOWER LEVEL:    4224013  ACCURACY: 8.82947
L2C TIMELY PREFETCHES:     372958 LATE PREFETCHES: 29661 DROPPED PREFETCHES: 0
L2C COMMIT LATE PREFETCHES: 0 MISSED OPPORTUNITY: 0 LATE IN PQ: 0 UNCOVERED: 0
L2C COMMIT LATE MSHR PREFETCHES: 0
L2C MPKI TOTAL: 35.7573 MSHR LATE: 0.148305 PQ LATE: 0 COMMIT LATE: 0 MISSED OPPORTUNITY: 0 UNCOVERED: 0
L2C PREFETCHES SAME FILL-ORIGIN LEVEL: 958842 DIFFERENT FILL-ORIGIN LEVEL: 0
L2C AVERAGE MISS LATENCY: 71.7691 cycles
L2C AVERAGE MISS LATENCY LOAD: 59.8596 cycles
L2C AVERAGE MISS LATENCY PREFETCH: 172.36 cycles
L2C AVERAGE MSHR OCCUPANCY: 3.0073
L2C MSHR FULL: 0.000530821
L2C RQ	ACCESS:   21957255	FORWARD:          0	MERGED:          0	TO_CACHE:   21956951
L2C WQ	ACCESS:    5747570	FORWARD:        306	MERGED:          0	TO_CACHE:    5747570
L2C PQ	ACCESS:    7403965	FORWARD:          0	MERGED:       1803	TO_CACHE:    7402160

L2C Instructions Evicting Data 2
L2C Translations Evicting Data 38221
L2C Data Evicting Data 7001096
L2C Instructions Evicting Instructions 0
L2C Translations Evicting Instructions 0
L2C Data Evicting Instructions 1
L2C Instructions Evicting Translations 0
L2C Translations Evicting Translations 89
L2C Data Evicting Translations 23408
L2C Dense regions hint from L2: 0
PSCL5 SPEC fills:          0  NON-SPEC fills:          0
PSCL5 Test counter :          0
PSCL5 Leapfrog:          0
PSCL5 MSHR merge:          0
PSCL5 TOTAL     ACCESS:          0  HIT:          0  MISS:          0  HIT %:       -nan  MISS %:       -nan   MPKI: 0
PSCL5 PREFETCH  REQUESTED:          0  ISSUED:          0  USEFUL:          0  USELESS:          0
PSCL5 USEFUL LOAD PREFETCHES:          0 PREFETCH ISSUED TO LOWER LEVEL:          0  ACCURACY: -nan
PSCL5 TIMELY PREFETCHES:          0 LATE PREFETCHES: 0 DROPPED PREFETCHES: 0
PSCL5 COMMIT LATE PREFETCHES: 0 MISSED OPPORTUNITY: 0 LATE IN PQ: 0 UNCOVERED: 0
PSCL5 COMMIT LATE MSHR PREFETCHES: 0
PSCL5 MPKI TOTAL: 0 MSHR LATE: 0 PQ LATE: 0 COMMIT LATE: 0 MISSED OPPORTUNITY: 0 UNCOVERED: 0
PSCL5 PREFETCHES SAME FILL-ORIGIN LEVEL: 0 DIFFERENT FILL-ORIGIN LEVEL: 0

PSCL4 SPEC fills:          0  NON-SPEC fills:          0
PSCL4 Test counter :          0
PSCL4 Leapfrog:          0
PSCL4 MSHR merge:          0
PSCL4 TOTAL     ACCESS:          0  HIT:          0  MISS:          0  HIT %:       -nan  MISS %:       -nan   MPKI: 0
PSCL4 PREFETCH  REQUESTED:          0  ISSUED:          0  USEFUL:          0  USELESS:          0
PSCL4 USEFUL LOAD PREFETCHES:          0 PREFETCH ISSUED TO LOWER LEVEL:          0  ACCURACY: -nan
PSCL4 TIMELY PREFETCHES:          0 LATE PREFETCHES: 0 DROPPED PREFETCHES: 0
PSCL4 COMMIT LATE PREFETCHES: 0 MISSED OPPORTUNITY: 0 LATE IN PQ: 0 UNCOVERED: 0
PSCL4 COMMIT LATE MSHR PREFETCHES: 0
PSCL4 MPKI TOTAL: 0 MSHR LATE: 0 PQ LATE: 0 COMMIT LATE: 0 MISSED OPPORTUNITY: 0 UNCOVERED: 0
PSCL4 PREFETCHES SAME FILL-ORIGIN LEVEL: 0 DIFFERENT FILL-ORIGIN LEVEL: 0

PSCL3 SPEC fills:          0  NON-SPEC fills:          0
PSCL3 Test counter :          0
PSCL3 Leapfrog:          0
PSCL3 MSHR merge:          0
PSCL3 TOTAL     ACCESS:          0  HIT:          0  MISS:          0  HIT %:       -nan  MISS %:       -nan   MPKI: 0
PSCL3 PREFETCH  REQUESTED:          0  ISSUED:          0  USEFUL:          0  USELESS:          0
PSCL3 USEFUL LOAD PREFETCHES:          0 PREFETCH ISSUED TO LOWER LEVEL:          0  ACCURACY: -nan
PSCL3 TIMELY PREFETCHES:          0 LATE PREFETCHES: 0 DROPPED PREFETCHES: 0
PSCL3 COMMIT LATE PREFETCHES: 0 MISSED OPPORTUNITY: 0 LATE IN PQ: 0 UNCOVERED: 0
PSCL3 COMMIT LATE MSHR PREFETCHES: 0
PSCL3 MPKI TOTAL: 0 MSHR LATE: 0 PQ LATE: 0 COMMIT LATE: 0 MISSED OPPORTUNITY: 0 UNCOVERED: 0
PSCL3 PREFETCHES SAME FILL-ORIGIN LEVEL: 0 DIFFERENT FILL-ORIGIN LEVEL: 0

PSCL2 SPEC fills:          0  NON-SPEC fills:          0
PSCL2 Test counter :          0
PSCL2 Leapfrog:          0
PSCL2 MSHR merge:          0
PSCL2 TOTAL     ACCESS:          0  HIT:          0  MISS:          0  HIT %:       -nan  MISS %:       -nan   MPKI: 0
PSCL2 PREFETCH  REQUESTED:          0  ISSUED:          0  USEFUL:          0  USELESS:          0
PSCL2 USEFUL LOAD PREFETCHES:          0 PREFETCH ISSUED TO LOWER LEVEL:          0  ACCURACY: -nan
PSCL2 TIMELY PREFETCHES:          0 LATE PREFETCHES: 0 DROPPED PREFETCHES: 0
PSCL2 COMMIT LATE PREFETCHES: 0 MISSED OPPORTUNITY: 0 LATE IN PQ: 0 UNCOVERED: 0
PSCL2 COMMIT LATE MSHR PREFETCHES: 0
PSCL2 MPKI TOTAL: 0 MSHR LATE: 0 PQ LATE: 0 COMMIT LATE: 0 MISSED OPPORTUNITY: 0 UNCOVERED: 0
PSCL2 PREFETCHES SAME FILL-ORIGIN LEVEL: 0 DIFFERENT FILL-ORIGIN LEVEL: 0

LLC SPEC fills:          0  NON-SPEC fills:     360483
LLC Test counter :    1695981
LLC Leapfrog:          0
LLC MSHR merge:          0
LLC TOTAL     ACCESS:   17300070  HIT:   10563174  MISS:    6736896  HIT %:    61.0586  MISS %:    38.9414   MPKI: 33.6845
LLC LOAD      TOTAL       ACCESS:    7122897  HIT:    5654184  MISS:    1468713  HIT %:    79.3804  MISS %:    20.6196   MPKI: 7.34356
LLC LOAD      NON_SPEC    ACCESS:    2283701  HIT:    1923216  MISS:     360485  HIT %:    84.2149  MISS %:    15.7851   MPKI: 1.80242
LLC LOAD      SPEC        ACCESS:    4839196  HIT:    3730968  MISS:    1108228  HIT %:    77.0989  MISS %:    22.9011   MPKI: 5.54114
LLC RFO       NON_SPEC    ACCESS:     297594  HIT:     291541  MISS:       6053  HIT %:     97.966  MISS %:    2.03398   MPKI: 0.030265
LLC PREFETCH  NON_SPEC    ACCESS:    4224012  HIT:      68761  MISS:    4155251  HIT %:    1.62786  MISS %:    98.3721   MPKI: 20.7763
LLC WRITEBACK NON_SPEC    ACCESS:     388996  HIT:     383705  MISS:       5291  HIT %:    98.6398  MISS %:    1.36017   MPKI: 0.026455
LLC CLEAN_EVICTION NON_SPEC    ACCESS:    4981649  HIT:    3911224  MISS:    1070425  HIT %:    78.5126  MISS %:    21.4874   MPKI: 5.35213
LLC COMMIT LOAD NON_SPEC    ACCESS:     246612  HIT:     231301  MISS:      15311  HIT %:    93.7915  MISS %:    6.20854   MPKI: 0.076555
LLC LOAD TRANSLATION NON_SPEC    ACCESS:      28656  HIT:      21983  MISS:       6673  HIT %:    76.7134  MISS %:    23.2866   MPKI: 0.033365
LLC TRANSLATION FROM L1D PREFETCHER NON_SPEC    ACCESS:       9654  HIT:        475  MISS:       9179  HIT %:    4.92024  MISS %:    95.0798   MPKI: 0.045895
LLC PREFETCH  REQUESTED:          0  ISSUED:          0  USEFUL:     107590  USELESS:    4056370
LLC USEFUL LOAD PREFETCHES:     107590 PREFETCH ISSUED TO LOWER LEVEL:    4155251  ACCURACY: 2.58925
LLC TIMELY PREFETCHES:     107590 LATE PREFETCHES: 0 DROPPED PREFETCHES: 0
LLC COMMIT LATE PREFETCHES: 0 MISSED OPPORTUNITY: 0 LATE IN PQ: 0 UNCOVERED: 0
LLC COMMIT LATE MSHR PREFETCHES: 0
LLC MPKI TOTAL: 7.34356 MSHR LATE: 0 PQ LATE: 0 COMMIT LATE: 0 MISSED OPPORTUNITY: 0 UNCOVERED: 0
LLC PREFETCHES SAME FILL-ORIGIN LEVEL: 0 DIFFERENT FILL-ORIGIN LEVEL: 0
LLC AVERAGE MISS LATENCY: 127.679 cycles
LLC AVERAGE MISS LATENCY LOAD: 171.169 cycles
LLC AVERAGE MISS LATENCY PREFETCH: 144.825 cycles
LLC AVERAGE MSHR OCCUPANCY: 2.33856
LLC MSHR FULL: 0
LLC RQ	ACCESS:    7705575	FORWARD:          0	MERGED:          0	TO_CACHE:    7705413
LLC WQ	ACCESS:    5370645	FORWARD:        163	MERGED:          0	TO_CACHE:    5370645
LLC PQ	ACCESS:    4224013	FORWARD:          0	MERGED:          0	TO_CACHE:    4224012

LLC Dense regions hint to LLC: 0

RAW hits: 2270371
Loads Generated: 70652983
Loads sent to L1D: 68382610
Stores Generated: 17802933
Stores sent to L1D: 17802933
Major fault: 0 Minor fault: 80635
Allocated PAGES: 80635
Total Load insts: 84735902
Total Non-spec loads: 17422999
Percentage of speculative loads: 79.4385

LeapFrogging counter: 2232289
Commit hits: 33773994 miss: 18742584
Commit hit %: 64.3111 miss %: 35.6889
Commits not translated: 0
Loads retired: 9837866
Stores retired: 17802933
Cache fills: 9837866
L1D response latency: 61.1396 cycles
Load retirement latency: 158.819 cycles
OOO test counter: 0
Discarded buffer inserts: 33773994 hits: 29285 hit %: 0.0867087
Filter prediction accuracy: 99.9803
ALL MISSES SIZE: 15830
LATENCY_FILL: 60.8738 9831607
LATENCY_FILL_ROB: 141.193 9819769
test counter pref: 123975037
Max ROB Extended: 56

DRAM Statistics
 CHANNEL 0
 RQ ROW_BUFFER_HIT:    2667507  ROW_BUFFER_MISS:    2992529
 DBUS_CONGESTED:       9278
 WQ ROW_BUFFER_HIT:     375787  ROW_BUFFER_MISS:    1356912  FULL:        802

 AVG_CONGESTED_CYCLE: 4
 All warmup complete: 2
Channel 0 Bank busy for read cycles: 0
Channel 0 Bank busy for write cycles: 0
Channel 0
Rank 0
0banks busy for read cycles: 378083514
0banks busy for write cycles: 181473
1banks busy for read cycles: 100816683
1banks busy for write cycles: 27647582
2banks busy for read cycles: 45611890
2banks busy for write cycles: 11768758
3banks busy for read cycles: 21434276
3banks busy for write cycles: 8184703
4banks busy for read cycles: 13778458
4banks busy for write cycles: 7268765
5banks busy for read cycles: 12449287
5banks busy for write cycles: 7453629
6banks busy for read cycles: 12961372
6banks busy for write cycles: 8468193
7banks busy for read cycles: 8060566
7banks busy for write cycles: 10664814
8banks busy for read cycles: 9351144
8banks busy for write cycles: 14542958

CPU 0 Branch Prediction Accuracy: 94.5902% MPKI: 13.9808 Average ROB Occupancy at Mispredict: 25.3915
Branch types
NOT_BRANCH: 148312419 74.1562%
BRANCH_DIRECT_JUMP: 5836928 2.91846%
BRANCH_INDIRECT: 0 0%
BRANCH_CONDITIONAL: 38055866 19.0279%
BRANCH_DIRECT_CALL: 3647058 1.82353%
BRANCH_INDIRECT_CALL: 250202 0.125101%
BRANCH_RETURN: 3897263 1.94863%
BRANCH_OTHER: 0 0%

DRAM PAGES: 1048576
Allocated PAGES: 80635
