
*** ChampSim Multicore Out-of-Order Simulator ***

Warmup Instructions: 50000000
Simulation Instructions: 200000000
Number of CPUs: 1
LLC sets: 2048
LLC ways: 16
L0D sets: 16
L0D ways: 2
ROB size: 352
LQ size: 128
SQ size: 72
Secure Berti: ON
Berti: ON
Berti Fill: ON
On commit prefetching: OFF
Hit-based filter: ON
Time-guarding: ON
Free-slotting: ON
Leap-frogging: ON
Train prefetcher on L0D bypass: OFF
No translation penalty for prefetchers: OFF
Prefetch to L0D only: OFF
Prefetch to L1D only: OFF
Clean evictions: ON
Commit loads: ON
Commit write: ON
Fill commit loads to L2C, LLC: ON
DRAM IO FREQUENCY: 6400
ROB SIZE: 352
Off-chip DRAM Size: 4096 MB Channels: 1 Width: 64-bit Data Rate: 6400 MT/s
CPU 0 runs /home/sumon/secure_berti/GhostMinion/../../traces/spec/605.mcf_s-665B.champsimtrace.xz
.xz
BTB has LRU replacement policy
ITLB has LRU replacement policy
DTLB has LRU replacement policy
STLB has LRU replacement policy
L1I has LRU replacement policy
L0D has LRU replacement policy
Berti version on_commit
History Sets: 8
History Ways: 16
BERTI Size: 16
BERTI Stride Size: 16
L1D has LRU replacement policy
L2C has LRU replacement policy
LLC has LRU replacement policy
Heartbeat CPU 0 instructions: 10000000 cycles: 5673462 heartbeat IPC: 1.76259 cumulative IPC: 1.76259 (Simulation time: 0 hr 1 min 43 sec) 
Heartbeat CPU 0 instructions: 20000000 cycles: 11334623 heartbeat IPC: 1.76642 cumulative IPC: 1.76451 (Simulation time: 0 hr 3 min 24 sec) 
Heartbeat CPU 0 instructions: 30000002 cycles: 17002463 heartbeat IPC: 1.76434 cumulative IPC: 1.76445 (Simulation time: 0 hr 5 min 1 sec) 
Heartbeat CPU 0 instructions: 40000000 cycles: 22646218 heartbeat IPC: 1.77187 cumulative IPC: 1.7663 (Simulation time: 0 hr 6 min 38 sec) 
Heartbeat CPU 0 instructions: 50000000 cycles: 28317112 heartbeat IPC: 1.76339 cumulative IPC: 1.76572 (Simulation time: 0 hr 8 min 12 sec) 

Warmup complete CPU 0 instructions: 50000004 cycles: 28317113 (Simulation time: 0 hr 8 min 12 sec) 

Heartbeat CPU 0 instructions: 60000003 cycles: 61011747 heartbeat IPC: 0.305861 cumulative IPC: 0.305861 (Simulation time: 0 hr 9 min 56 sec) 
Heartbeat CPU 0 instructions: 70000003 cycles: 93546448 heartbeat IPC: 0.307364 cumulative IPC: 0.30661 (Simulation time: 0 hr 11 min 38 sec) 
Heartbeat CPU 0 instructions: 80000001 cycles: 126113703 heartbeat IPC: 0.307057 cumulative IPC: 0.306759 (Simulation time: 0 hr 13 min 18 sec) 
Heartbeat CPU 0 instructions: 90000001 cycles: 159502794 heartbeat IPC: 0.299499 cumulative IPC: 0.304911 (Simulation time: 0 hr 15 min 2 sec) 
Heartbeat CPU 0 instructions: 100000000 cycles: 191852402 heartbeat IPC: 0.309123 cumulative IPC: 0.305744 (Simulation time: 0 hr 16 min 43 sec) 
Heartbeat CPU 0 instructions: 110000000 cycles: 224242024 heartbeat IPC: 0.308741 cumulative IPC: 0.30624 (Simulation time: 0 hr 18 min 23 sec) 
Heartbeat CPU 0 instructions: 120000000 cycles: 256453515 heartbeat IPC: 0.310448 cumulative IPC: 0.306834 (Simulation time: 0 hr 20 min 2 sec) 
Heartbeat CPU 0 instructions: 130000000 cycles: 288589838 heartbeat IPC: 0.311174 cumulative IPC: 0.30737 (Simulation time: 0 hr 21 min 44 sec) 
Heartbeat CPU 0 instructions: 140000002 cycles: 321399331 heartbeat IPC: 0.30479 cumulative IPC: 0.307081 (Simulation time: 0 hr 23 min 18 sec) 
Heartbeat CPU 0 instructions: 150000000 cycles: 353979475 heartbeat IPC: 0.306935 cumulative IPC: 0.307066 (Simulation time: 0 hr 24 min 49 sec) 
Heartbeat CPU 0 instructions: 160000001 cycles: 386372119 heartbeat IPC: 0.308712 cumulative IPC: 0.307215 (Simulation time: 0 hr 26 min 21 sec) 
Heartbeat CPU 0 instructions: 170000003 cycles: 419226073 heartbeat IPC: 0.304377 cumulative IPC: 0.306977 (Simulation time: 0 hr 27 min 50 sec) 
Heartbeat CPU 0 instructions: 180000001 cycles: 451600261 heartbeat IPC: 0.308888 cumulative IPC: 0.307123 (Simulation time: 0 hr 29 min 17 sec) 
Heartbeat CPU 0 instructions: 190000002 cycles: 484007829 heartbeat IPC: 0.30857 cumulative IPC: 0.307226 (Simulation time: 0 hr 30 min 43 sec) 
Heartbeat CPU 0 instructions: 200000000 cycles: 516530803 heartbeat IPC: 0.307475 cumulative IPC: 0.307243 (Simulation time: 0 hr 32 min 10 sec) 
Heartbeat CPU 0 instructions: 210000000 cycles: 548938067 heartbeat IPC: 0.308573 cumulative IPC: 0.307325 (Simulation time: 0 hr 33 min 43 sec) 
Heartbeat CPU 0 instructions: 220000000 cycles: 581068331 heartbeat IPC: 0.311233 cumulative IPC: 0.307552 (Simulation time: 0 hr 35 min 4 sec) 
Heartbeat CPU 0 instructions: 230000000 cycles: 614184326 heartbeat IPC: 0.301969 cumulative IPC: 0.307237 (Simulation time: 0 hr 36 min 7 sec) 
Heartbeat CPU 0 instructions: 240000000 cycles: 646327951 heartbeat IPC: 0.311104 cumulative IPC: 0.307438 (Simulation time: 0 hr 37 min 30 sec) 
Heartbeat CPU 0 instructions: 250000002 cycles: 678670892 heartbeat IPC: 0.309187 cumulative IPC: 0.307525 (Simulation time: 0 hr 38 min 35 sec) 
Finished CPU 0 instructions: 200000002 cycles: 650353780 cumulative IPC: 0.307525 (Simulation time: 0 hr 38 min 35 sec) 
 Instruction ID: 250000015

ChampSim completed all CPUs

Region of Interest Statistics

CPU 0 cumulative IPC: 0.307525 instructions: 200000002 cycles: 650353780
ITLB SPEC fills:          0  NON-SPEC fills:          0
ITLB Test counter :          0
ITLB Leapfrog:          0
ITLB MSHR merge:          0
ITLB TOTAL     ACCESS:   36305799  HIT:   36305799  MISS:          0  HIT %:        100  MISS %:          0   MPKI: 0
ITLB LOAD TRANSLATION NON_SPEC    ACCESS:   36305799  HIT:   36305799  MISS:          0  HIT %:        100  MISS %:          0   MPKI: 0
ITLB PREFETCH  REQUESTED:          0  ISSUED:          0  USEFUL:          0  USELESS:          0
ITLB USEFUL LOAD PREFETCHES:          0 PREFETCH ISSUED TO LOWER LEVEL:          0  ACCURACY: -nan
ITLB TIMELY PREFETCHES:          0 LATE PREFETCHES: 0 DROPPED PREFETCHES: 0
ITLB COMMIT LATE PREFETCHES: 0 MISSED OPPORTUNITY: 0 LATE IN PQ: 0 UNCOVERED: 0
ITLB COMMIT LATE MSHR PREFETCHES: 0
ITLB MPKI TOTAL: 0 MSHR LATE: 0 PQ LATE: 0 COMMIT LATE: 0 MISSED OPPORTUNITY: 0 UNCOVERED: 0
ITLB PREFETCHES SAME FILL-ORIGIN LEVEL: 0 DIFFERENT FILL-ORIGIN LEVEL: 0
ITLB AVERAGE MISS LATENCY: -nan cycles
ITLB AVERAGE MISS LATENCY LOAD: -nan cycles
ITLB AVERAGE MISS LATENCY PREFETCH: -nan cycles
ITLB AVERAGE MSHR OCCUPANCY: 0
ITLB MSHR FULL: 0
ITLB RQ	ACCESS:   38010935	FORWARD:          0	MERGED:    1705137	TO_CACHE:   36305798

DTLB SPEC fills:          0  NON-SPEC fills:          0
DTLB Test counter :          0
DTLB Leapfrog:          0
DTLB MSHR merge:          0
DTLB TOTAL     ACCESS:   67953443  HIT:   64957828  MISS:    2995615  HIT %:    95.5917  MISS %:    4.40833   MPKI: 14.9781
DTLB LOAD TRANSLATION NON_SPEC    ACCESS:   67953443  HIT:   64957828  MISS:    2995615  HIT %:    95.5917  MISS %:    4.40833   MPKI: 14.9781
DTLB PREFETCH  REQUESTED:          0  ISSUED:          0  USEFUL:          0  USELESS:          0
DTLB USEFUL LOAD PREFETCHES:          0 PREFETCH ISSUED TO LOWER LEVEL:          0  ACCURACY: -nan
DTLB TIMELY PREFETCHES:          0 LATE PREFETCHES: 0 DROPPED PREFETCHES: 0
DTLB COMMIT LATE PREFETCHES: 0 MISSED OPPORTUNITY: 0 LATE IN PQ: 0 UNCOVERED: 0
DTLB COMMIT LATE MSHR PREFETCHES: 0
DTLB MPKI TOTAL: 0 MSHR LATE: 0 PQ LATE: 0 COMMIT LATE: 0 MISSED OPPORTUNITY: 0 UNCOVERED: 0
DTLB PREFETCHES SAME FILL-ORIGIN LEVEL: 0 DIFFERENT FILL-ORIGIN LEVEL: 0
DTLB AVERAGE MISS LATENCY: 11.178 cycles
DTLB AVERAGE MISS LATENCY LOAD: -nan cycles
DTLB AVERAGE MISS LATENCY PREFETCH: -nan cycles
DTLB AVERAGE MSHR OCCUPANCY: 0.0256483
DTLB MSHR FULL: 0
DTLB RQ	ACCESS:   82039476	FORWARD:          0	MERGED:   13702670	TO_CACHE:   68336806

STLB SPEC fills:          0  NON-SPEC fills:          0
STLB Test counter :          0
STLB Leapfrog:          0
STLB MSHR merge:          0
STLB TOTAL     ACCESS:   10388904  HIT:   10346767  MISS:      42137  HIT %:    99.5944  MISS %:   0.405596   MPKI: 0.210685
STLB LOAD TRANSLATION NON_SPEC    ACCESS:    2995615  HIT:    2953634  MISS:      41981  HIT %:    98.5986  MISS %:    1.40142   MPKI: 0.209905
STLB TRANSLATION FROM L1D PREFETCHER NON_SPEC    ACCESS:    7393289  HIT:    7393133  MISS:        156  HIT %:    99.9979  MISS %: 0.00211002   MPKI: 0.00078
STLB PREFETCH  REQUESTED:          0  ISSUED:          0  USEFUL:        104  USELESS:         53
STLB USEFUL LOAD PREFETCHES:        104 PREFETCH ISSUED TO LOWER LEVEL:          0  ACCURACY: inf
STLB TIMELY PREFETCHES:        104 LATE PREFETCHES: 9764 DROPPED PREFETCHES: 764727
STLB COMMIT LATE PREFETCHES: 0 MISSED OPPORTUNITY: 0 LATE IN PQ: 0 UNCOVERED: 0
STLB COMMIT LATE MSHR PREFETCHES: 0
STLB MPKI TOTAL: 0 MSHR LATE: 0.04882 PQ LATE: 0 COMMIT LATE: 0 MISSED OPPORTUNITY: 0 UNCOVERED: 0
STLB PREFETCHES SAME FILL-ORIGIN LEVEL: 0 DIFFERENT FILL-ORIGIN LEVEL: 0
STLB AVERAGE MISS LATENCY: 152.596 cycles
STLB AVERAGE MISS LATENCY LOAD: -nan cycles
STLB AVERAGE MISS LATENCY PREFETCH: -nan cycles
STLB AVERAGE MSHR OCCUPANCY: 0.157478
STLB MSHR FULL: 0
STLB RQ	ACCESS:   39152986	FORWARD:          0	MERGED:   27901158	TO_CACHE:   11251828

STLB Hit, L1D data hit: 0
STLB Hit, L2C data hit: 0
STLB Hit, LLC data hit: 0
STLB Hit, LLC data miss: 0
STLB STLB hints to L2: 0
L0D SPEC fills:   34434133  NON-SPEC fills:          0
L0D TimeGuard Request with older TS:     160828 Restricted eviction:      69847 read:     227078
L0D Test counter :          0
L0D Leapfrog:          0
L0D MSHR merge:     951150
L0D TOTAL     ACCESS:   57413948  HIT:    3953030  MISS:   53460918  HIT %:    6.88514  MISS %:    93.1149   MPKI: 267.305
L0D LOAD      TOTAL       ACCESS:   57413948  HIT:    3953030  MISS:   53460918  HIT %:    6.88514  MISS %:    93.1149   MPKI: 267.305
L0D LOAD      NON_SPEC    ACCESS:   19465134  HIT:     508196  MISS:   18956938  HIT %:     2.6108  MISS %:    97.3892   MPKI: 94.7847
L0D LOAD      SPEC        ACCESS:   37948814  HIT:    3444834  MISS:   34503980  HIT %:    9.07758  MISS %:    90.9224   MPKI: 172.52
L0D PREFETCH  REQUESTED:          0  ISSUED:          0  USEFUL:          0  USELESS:          0
L0D USEFUL LOAD PREFETCHES:          0 PREFETCH ISSUED TO LOWER LEVEL:          0  ACCURACY: -nan
L0D TIMELY PREFETCHES:          0 LATE PREFETCHES: 0 DROPPED PREFETCHES: 0
L0D COMMIT LATE PREFETCHES: 0 MISSED OPPORTUNITY: 0 LATE IN PQ: 0 UNCOVERED: 0
L0D COMMIT LATE MSHR PREFETCHES: 0
L0D MPKI TOTAL: 272.06 MSHR LATE: 0 PQ LATE: 0 COMMIT LATE: 0 MISSED OPPORTUNITY: 0 UNCOVERED: 0
L0D PREFETCHES SAME FILL-ORIGIN LEVEL: 0 DIFFERENT FILL-ORIGIN LEVEL: 0
L0D AVERAGE MISS LATENCY: 9.78322 cycles
L0D AVERAGE MISS LATENCY LOAD: 9.78322 cycles
L0D AVERAGE MISS LATENCY PREFETCH: -nan cycles
L0D AVERAGE MSHR OCCUPANCY: 0.626275
L0D MSHR FULL: 0.001886
L0D RQ	ACCESS:   67402311	FORWARD:          0	MERGED:    9037216	TO_CACHE:   58365095
L0D WQ	ACCESS:   23674381	FORWARD:          0	MERGED:          0	TO_CACHE:   23674381

L1D SPEC fills:          0  NON-SPEC fills:    2640765
L1D Test counter :    1508099
L1D Leapfrog:          0
L1D MSHR merge:      48077
L1D TOTAL     ACCESS:  106962529  HIT:   97733024  MISS:    9229505  HIT %:    91.3713  MISS %:    8.62873   MPKI: 46.1475
L1D LOAD      TOTAL       ACCESS:   53459195  HIT:   48610858  MISS:    4848337  HIT %:    90.9308  MISS %:    9.06923   MPKI: 24.2417
L1D LOAD      NON_SPEC    ACCESS:   18956685  HIT:   16315920  MISS:    2640765  HIT %:    86.0695  MISS %:    13.9305   MPKI: 13.2038
L1D LOAD      SPEC        ACCESS:   34502510  HIT:   32294938  MISS:    2207572  HIT %:    93.6017  MISS %:    6.39829   MPKI: 11.0379
L1D RFO       NON_SPEC    ACCESS:   22287337  HIT:   21533078  MISS:     754259  HIT %:    96.6158  MISS %:    3.38425   MPKI: 3.77129
L1D PREFETCH  NON_SPEC    ACCESS:   28620151  HIT:   27178055  MISS:    1442096  HIT %:    94.9613  MISS %:    5.03874   MPKI: 7.21048
L1D COMMIT LOAD NON_SPEC    ACCESS:     434904  HIT:     375402  MISS:      59502  HIT %:    86.3184  MISS %:    13.6816   MPKI: 0.29751
L1D COMMIT WRITE NON_SPEC    ACCESS:    2160942  HIT:      35631  MISS:    2125311  HIT %:    1.64886  MISS %:    98.3511   MPKI: 10.6266
L1D PREFETCH  REQUESTED:   43298676  ISSUED:   38694614  USEFUL:    1426279  USELESS:      15816
L1D USEFUL LOAD PREFETCHES:    1426279 PREFETCH ISSUED TO LOWER LEVEL:    5597563  ACCURACY: 25.4804
L1D TIMELY PREFETCHES:    1426279 LATE PREFETCHES: 46644 DROPPED PREFETCHES: 2963016
L1D COMMIT LATE PREFETCHES: 0 MISSED OPPORTUNITY: 0 LATE IN PQ: 0 UNCOVERED: 0
L1D COMMIT LATE MSHR PREFETCHES: 0
L1D MPKI TOTAL: 24.2503 MSHR LATE: 0.23322 PQ LATE: 0 COMMIT LATE: 0 MISSED OPPORTUNITY: 0 UNCOVERED: 0
L1D PREFETCHES SAME FILL-ORIGIN LEVEL: 1488740 DIFFERENT FILL-ORIGIN LEVEL: 4108823
L1D AVERAGE MISS LATENCY: 51.833 cycles
L1D AVERAGE MISS LATENCY LOAD: 51.4762 cycles
L1D AVERAGE MISS LATENCY PREFETCH: 141.967 cycles
L1D AVERAGE MSHR OCCUPANCY: 0.364924
L1D MSHR FULL: 0.00422324
L1D RQ	ACCESS:   54071112	FORWARD:          0	MERGED:     173024	TO_CACHE:   53896707
L1D WQ	ACCESS:   25835333	FORWARD:       1381	MERGED:     119761	TO_CACHE:   25715572
L1D PQ	ACCESS:   38694614	FORWARD:          0	MERGED:    2537243	TO_CACHE:   36157371

L1D UNIQUE REGIONS ACCESSED: 0
L1D REGIONS CONFLICTS: 0
L1D Cross Page Prefetch Requests: 6356232
L1D Same Page Prefetch Requests: 43868347
L1D ROI Sum of L1D PQ occupancy: 844984461
L1D PREFETCHES PUSHED FROM L2C: 0
L1I SPEC fills:          0  NON-SPEC fills:          0
L1I Test counter :          0
L1I Leapfrog:          0
L1I MSHR merge:          0
L1I TOTAL     ACCESS:   38010936  HIT:   38010934  MISS:          2  HIT %:        100  MISS %: 5.26164e-06   MPKI: 1e-05
L1I LOAD      TOTAL       ACCESS:   38010936  HIT:   38010934  MISS:          2  HIT %:        100  MISS %: 5.26164e-06   MPKI: 1e-05
L1I LOAD      NON_SPEC    ACCESS:   38010936  HIT:   38010934  MISS:          2  HIT %:        100  MISS %: 5.26164e-06   MPKI: 1e-05
L1I PREFETCH  REQUESTED:          0  ISSUED:          0  USEFUL:          0  USELESS:          0
L1I USEFUL LOAD PREFETCHES:          0 PREFETCH ISSUED TO LOWER LEVEL:          0  ACCURACY: -nan
L1I TIMELY PREFETCHES:          0 LATE PREFETCHES: 0 DROPPED PREFETCHES: 0
L1I COMMIT LATE PREFETCHES: 0 MISSED OPPORTUNITY: 0 LATE IN PQ: 0 UNCOVERED: 0
L1I COMMIT LATE MSHR PREFETCHES: 0
L1I MPKI TOTAL: 1e-05 MSHR LATE: 0 PQ LATE: 0 COMMIT LATE: 0 MISSED OPPORTUNITY: 0 UNCOVERED: 0
L1I PREFETCHES SAME FILL-ORIGIN LEVEL: 0 DIFFERENT FILL-ORIGIN LEVEL: 0
L1I AVERAGE MISS LATENCY: 214 cycles
L1I AVERAGE MISS LATENCY LOAD: 214 cycles
L1I AVERAGE MISS LATENCY PREFETCH: -nan cycles
L1I AVERAGE MSHR OCCUPANCY: 2.63082e-08
L1I MSHR FULL: 0
L1I RQ	ACCESS:   61773664	FORWARD:          0	MERGED:   23762729	TO_CACHE:   38010935

BTB SPEC fills:          0  NON-SPEC fills:          0
BTB Test counter :          0
BTB Leapfrog:          0
BTB MSHR merge:          0
BTB TOTAL     ACCESS:   47317450  HIT:   44887024  MISS:    2430426  HIT %:    94.8636  MISS %:    5.13643   MPKI: 12.1521
BTB BRANCH_DIRECT_JUMP	ACCESS:    5163667  HIT:    5163630  MISS:         37
BTB BRANCH_INDIRECT	ACCESS:          0  HIT:          0  MISS:          0
BTB BRANCH_CONDITIONAL	ACCESS:   31033862  HIT:   31033783  MISS:         79
BTB BRANCH_DIRECT_CALL	ACCESS:    5259751  HIT:    5259733  MISS:         18
BTB BRANCH_INDIRECT_CALL	ACCESS:     300210  HIT:     300202  MISS:          8
BTB BRANCH_RETURN	ACCESS:    5559960  HIT:    3129676  MISS:    2430284
BTB BRANCH_OTHER ACCESS:          0  HIT:          0  MISS:          0

L2C SPEC fills:          0  NON-SPEC fills:    1232108
L2C Test counter :    1421381
L2C Leapfrog:          0
L2C MSHR merge:       5046
L2C TOTAL     ACCESS:   17594350  HIT:   11656281  MISS:    5938069  HIT %:    66.2501  MISS %:    33.7499   MPKI: 29.6903
L2C LOAD      TOTAL       ACCESS:    4801916  HIT:    2185613  MISS:    2616303  HIT %:    45.5154  MISS %:    54.4846   MPKI: 13.0815
L2C LOAD      NON_SPEC    ACCESS:    2639921  HIT:    1407811  MISS:    1232110  HIT %:    53.3278  MISS %:    46.6722   MPKI: 6.16055
L2C LOAD      SPEC        ACCESS:    2161995  HIT:     777802  MISS:    1384193  HIT %:    35.9761  MISS %:    64.0239   MPKI: 6.92096
L2C RFO       NON_SPEC    ACCESS:     754215  HIT:     441855  MISS:     312360  HIT %:    58.5848  MISS %:    41.4152   MPKI: 1.5618
L2C PREFETCH  NON_SPEC    ACCESS:    5528955  HIT:    3897221  MISS:    1631734  HIT %:    70.4875  MISS %:    29.5125   MPKI: 8.15867
L2C WRITEBACK NON_SPEC    ACCESS:     860823  HIT:     860821  MISS:          2  HIT %:    99.9998  MISS %: 0.000232336   MPKI: 1e-05
L2C CLEAN_EVICTION NON_SPEC    ACCESS:    1508099  HIT:     192350  MISS:    1315749  HIT %:    12.7545  MISS %:    87.2455   MPKI: 6.57874
L2C COMMIT LOAD NON_SPEC    ACCESS:      59211  HIT:      17318  MISS:      41893  HIT %:    29.2479  MISS %:    70.7521   MPKI: 0.209465
L2C LOAD TRANSLATION NON_SPEC    ACCESS:     209668  HIT:     192971  MISS:      16697  HIT %:    92.0365  MISS %:    7.96354   MPKI: 0.083485
L2C TRANSLATION FROM L1D PREFETCHER NON_SPEC    ACCESS:    3871463  HIT:    3868132  MISS:       3331  HIT %:     99.914  MISS %:  0.0860398   MPKI: 0.016655
L2C PREFETCH  REQUESTED:          0  ISSUED:          0  USEFUL:     395287  USELESS:    1239895
L2C USEFUL LOAD PREFETCHES:     395287 PREFETCH ISSUED TO LOWER LEVEL:    1636960  ACCURACY: 24.1476
L2C TIMELY PREFETCHES:     395287 LATE PREFETCHES: 5226 DROPPED PREFETCHES: 0
L2C COMMIT LATE PREFETCHES: 0 MISSED OPPORTUNITY: 0 LATE IN PQ: 0 UNCOVERED: 0
L2C COMMIT LATE MSHR PREFETCHES: 0
L2C MPKI TOTAL: 13.0815 MSHR LATE: 0.02613 PQ LATE: 0 COMMIT LATE: 0 MISSED OPPORTUNITY: 0 UNCOVERED: 0
L2C PREFETCHES SAME FILL-ORIGIN LEVEL: 564044 DIFFERENT FILL-ORIGIN LEVEL: 0
L2C AVERAGE MISS LATENCY: 74.6089 cycles
L2C AVERAGE MISS LATENCY LOAD: 68.391 cycles
L2C AVERAGE MISS LATENCY PREFETCH: 153.578 cycles
L2C AVERAGE MSHR OCCUPANCY: 1.72309
L2C MSHR FULL: 3.93942e-05
L2C RQ	ACCESS:    9696587	FORWARD:          0	MERGED:          0	TO_CACHE:    9696473
L2C WQ	ACCESS:    2368922	FORWARD:        117	MERGED:          0	TO_CACHE:    2368922
L2C PQ	ACCESS:    5597563	FORWARD:          0	MERGED:        437	TO_CACHE:    5597123

L2C Instructions Evicting Data 2
L2C Translations Evicting Data 19902
L2C Data Evicting Data 3204103
L2C Instructions Evicting Instructions 0
L2C Translations Evicting Instructions 0
L2C Data Evicting Instructions 1
L2C Instructions Evicting Translations 0
L2C Translations Evicting Translations 126
L2C Data Evicting Translations 13991
L2C Dense regions hint from L2: 0
PSCL5 SPEC fills:          0  NON-SPEC fills:          0
PSCL5 Test counter :          0
PSCL5 Leapfrog:          0
PSCL5 MSHR merge:          0
PSCL5 TOTAL     ACCESS:          0  HIT:          0  MISS:          0  HIT %:       -nan  MISS %:       -nan   MPKI: 0
PSCL5 PREFETCH  REQUESTED:          0  ISSUED:          0  USEFUL:          0  USELESS:          0
PSCL5 USEFUL LOAD PREFETCHES:          0 PREFETCH ISSUED TO LOWER LEVEL:          0  ACCURACY: -nan
PSCL5 TIMELY PREFETCHES:          0 LATE PREFETCHES: 0 DROPPED PREFETCHES: 0
PSCL5 COMMIT LATE PREFETCHES: 0 MISSED OPPORTUNITY: 0 LATE IN PQ: 0 UNCOVERED: 0
PSCL5 COMMIT LATE MSHR PREFETCHES: 0
PSCL5 MPKI TOTAL: 0 MSHR LATE: 0 PQ LATE: 0 COMMIT LATE: 0 MISSED OPPORTUNITY: 0 UNCOVERED: 0
PSCL5 PREFETCHES SAME FILL-ORIGIN LEVEL: 0 DIFFERENT FILL-ORIGIN LEVEL: 0

PSCL4 SPEC fills:          0  NON-SPEC fills:          0
PSCL4 Test counter :          0
PSCL4 Leapfrog:          0
PSCL4 MSHR merge:          0
PSCL4 TOTAL     ACCESS:          0  HIT:          0  MISS:          0  HIT %:       -nan  MISS %:       -nan   MPKI: 0
PSCL4 PREFETCH  REQUESTED:          0  ISSUED:          0  USEFUL:          0  USELESS:          0
PSCL4 USEFUL LOAD PREFETCHES:          0 PREFETCH ISSUED TO LOWER LEVEL:          0  ACCURACY: -nan
PSCL4 TIMELY PREFETCHES:          0 LATE PREFETCHES: 0 DROPPED PREFETCHES: 0
PSCL4 COMMIT LATE PREFETCHES: 0 MISSED OPPORTUNITY: 0 LATE IN PQ: 0 UNCOVERED: 0
PSCL4 COMMIT LATE MSHR PREFETCHES: 0
PSCL4 MPKI TOTAL: 0 MSHR LATE: 0 PQ LATE: 0 COMMIT LATE: 0 MISSED OPPORTUNITY: 0 UNCOVERED: 0
PSCL4 PREFETCHES SAME FILL-ORIGIN LEVEL: 0 DIFFERENT FILL-ORIGIN LEVEL: 0

PSCL3 SPEC fills:          0  NON-SPEC fills:          0
PSCL3 Test counter :          0
PSCL3 Leapfrog:          0
PSCL3 MSHR merge:          0
PSCL3 TOTAL     ACCESS:          0  HIT:          0  MISS:          0  HIT %:       -nan  MISS %:       -nan   MPKI: 0
PSCL3 PREFETCH  REQUESTED:          0  ISSUED:          0  USEFUL:          0  USELESS:          0
PSCL3 USEFUL LOAD PREFETCHES:          0 PREFETCH ISSUED TO LOWER LEVEL:          0  ACCURACY: -nan
PSCL3 TIMELY PREFETCHES:          0 LATE PREFETCHES: 0 DROPPED PREFETCHES: 0
PSCL3 COMMIT LATE PREFETCHES: 0 MISSED OPPORTUNITY: 0 LATE IN PQ: 0 UNCOVERED: 0
PSCL3 COMMIT LATE MSHR PREFETCHES: 0
PSCL3 MPKI TOTAL: 0 MSHR LATE: 0 PQ LATE: 0 COMMIT LATE: 0 MISSED OPPORTUNITY: 0 UNCOVERED: 0
PSCL3 PREFETCHES SAME FILL-ORIGIN LEVEL: 0 DIFFERENT FILL-ORIGIN LEVEL: 0

PSCL2 SPEC fills:          0  NON-SPEC fills:          0
PSCL2 Test counter :          0
PSCL2 Leapfrog:          0
PSCL2 MSHR merge:          0
PSCL2 TOTAL     ACCESS:          0  HIT:          0  MISS:          0  HIT %:       -nan  MISS %:       -nan   MPKI: 0
PSCL2 PREFETCH  REQUESTED:          0  ISSUED:          0  USEFUL:          0  USELESS:          0
PSCL2 USEFUL LOAD PREFETCHES:          0 PREFETCH ISSUED TO LOWER LEVEL:          0  ACCURACY: -nan
PSCL2 TIMELY PREFETCHES:          0 LATE PREFETCHES: 0 DROPPED PREFETCHES: 0
PSCL2 COMMIT LATE PREFETCHES: 0 MISSED OPPORTUNITY: 0 LATE IN PQ: 0 UNCOVERED: 0
PSCL2 COMMIT LATE MSHR PREFETCHES: 0
PSCL2 MPKI TOTAL: 0 MSHR LATE: 0 PQ LATE: 0 COMMIT LATE: 0 MISSED OPPORTUNITY: 0 UNCOVERED: 0
PSCL2 PREFETCHES SAME FILL-ORIGIN LEVEL: 0 DIFFERENT FILL-ORIGIN LEVEL: 0

LLC SPEC fills:          0  NON-SPEC fills:     252060
LLC Test counter :     570859
LLC Leapfrog:          0
LLC MSHR merge:          0
LLC TOTAL     ACCESS:    6422583  HIT:    3957774  MISS:    2464809  HIT %:    61.6228  MISS %:    38.3772   MPKI: 12.324
LLC LOAD      TOTAL       ACCESS:    2611241  HIT:    1966759  MISS:     644482  HIT %:    75.3189  MISS %:    24.6811   MPKI: 3.22241
LLC LOAD      NON_SPEC    ACCESS:    1231366  HIT:     979304  MISS:     252062  HIT %:    79.5299  MISS %:    20.4701   MPKI: 1.26031
LLC LOAD      SPEC        ACCESS:    1379875  HIT:     987455  MISS:     392420  HIT %:    71.5612  MISS %:    28.4388   MPKI: 1.9621
LLC RFO       NON_SPEC    ACCESS:     312349  HIT:     309593  MISS:       2756  HIT %:    99.1177  MISS %:   0.882346   MPKI: 0.01378
LLC PREFETCH  NON_SPEC    ACCESS:    1636958  HIT:     241048  MISS:    1395910  HIT %:    14.7254  MISS %:    85.2746   MPKI: 6.97955
LLC WRITEBACK NON_SPEC    ACCESS:     378916  HIT:     371000  MISS:       7916  HIT %:    97.9109  MISS %:    2.08912   MPKI: 0.03958
LLC CLEAN_EVICTION NON_SPEC    ACCESS:    1421381  HIT:    1017210  MISS:     404171  HIT %:    71.5649  MISS %:    28.4351   MPKI: 2.02085
LLC COMMIT LOAD NON_SPEC    ACCESS:      41710  HIT:      37609  MISS:       4101  HIT %:    90.1678  MISS %:    9.83217   MPKI: 0.020505
LLC LOAD TRANSLATION NON_SPEC    ACCESS:      16697  HIT:      14179  MISS:       2518  HIT %:    84.9194  MISS %:    15.0806   MPKI: 0.01259
LLC TRANSLATION FROM L1D PREFETCHER NON_SPEC    ACCESS:       3331  HIT:        376  MISS:       2955  HIT %:    11.2879  MISS %:    88.7121   MPKI: 0.014775
LLC PREFETCH  REQUESTED:          0  ISSUED:          0  USEFUL:     185376  USELESS:    1215646
LLC USEFUL LOAD PREFETCHES:     185376 PREFETCH ISSUED TO LOWER LEVEL:    1395910  ACCURACY: 13.2799
LLC TIMELY PREFETCHES:     185376 LATE PREFETCHES: 0 DROPPED PREFETCHES: 0
LLC COMMIT LATE PREFETCHES: 0 MISSED OPPORTUNITY: 0 LATE IN PQ: 0 UNCOVERED: 0
LLC COMMIT LATE MSHR PREFETCHES: 0
LLC MPKI TOTAL: 3.22241 MSHR LATE: 0 PQ LATE: 0 COMMIT LATE: 0 MISSED OPPORTUNITY: 0 UNCOVERED: 0
LLC PREFETCHES SAME FILL-ORIGIN LEVEL: 0 DIFFERENT FILL-ORIGIN LEVEL: 0
LLC AVERAGE MISS LATENCY: 128.452 cycles
LLC AVERAGE MISS LATENCY LOAD: 173.823 cycles
LLC AVERAGE MISS LATENCY PREFETCH: 144.97 cycles
LLC AVERAGE MSHR OCCUPANCY: 1.46368
LLC MSHR FULL: 0
LLC RQ	ACCESS:    2985358	FORWARD:          0	MERGED:          0	TO_CACHE:    2985328
LLC WQ	ACCESS:    1800297	FORWARD:         32	MERGED:          0	TO_CACHE:    1800297
LLC PQ	ACCESS:    1636960	FORWARD:          0	MERGED:          0	TO_CACHE:    1636958

LLC Dense regions hint to LLC: 0

RAW hits: 2883294
Loads Generated: 70285606
Loads sent to L1D: 67402311
Stores Generated: 23674352
Stores sent to L1D: 23674381
Major fault: 0 Minor fault: 30918
Allocated PAGES: 30918
Total Load insts: 83342840
Total Non-spec loads: 21281207
Percentage of speculative loads: 74.4655

LeapFrogging counter: 156376
Commit hits: 34356768 miss: 13473664
Commit hit %: 71.8304 miss %: 28.1696
Commits not translated: 0
Loads retired: 4848337
Stores retired: 23674381
Cache fills: 4848337
L1D response latency: 51.4762 cycles
Load retirement latency: 100.794 cycles
OOO test counter: 0
Discarded buffer inserts: 34356768 hits: 15528 hit %: 0.0451963
Filter prediction accuracy: 99.9918
ALL MISSES SIZE: 5640
LATENCY_FILL: 51.3533 4846264
LATENCY_FILL_ROB: 87.5196 4843537
test counter pref: 73139947
Max ROB Extended: 52

DRAM Statistics
 CHANNEL 0
 RQ ROW_BUFFER_HIT:     777473  ROW_BUFFER_MISS:    1275067
 DBUS_CONGESTED:       3854
 WQ ROW_BUFFER_HIT:     111792  ROW_BUFFER_MISS:     477991  FULL:          0

 AVG_CONGESTED_CYCLE: 4
 All warmup complete: 2
Channel 0 Bank busy for read cycles: 0
Channel 0 Bank busy for write cycles: 0
Channel 0
Rank 0
0banks busy for read cycles: 505476301
0banks busy for write cycles: 118927
1banks busy for read cycles: 53210479
1banks busy for write cycles: 18334644
2banks busy for read cycles: 21143701
2banks busy for write cycles: 5791194
3banks busy for read cycles: 8428426
3banks busy for write cycles: 3617160
4banks busy for read cycles: 4988026
4banks busy for write cycles: 3069738
5banks busy for read cycles: 4541589
5banks busy for write cycles: 3042179
6banks busy for read cycles: 4620194
6banks busy for write cycles: 3083159
7banks busy for read cycles: 2581352
7banks busy for write cycles: 3033681
8banks busy for read cycles: 2620106
8banks busy for write cycles: 2652925

CPU 0 Branch Prediction Accuracy: 92.9349% MPKI: 17.4788 Average ROB Occupancy at Mispredict: 18.2541
Branch types
NOT_BRANCH: 150520483 75.2602%
BRANCH_DIRECT_JUMP: 5163667 2.58183%
BRANCH_INDIRECT: 0 0%
BRANCH_CONDITIONAL: 33195560 16.5978%
BRANCH_DIRECT_CALL: 5259751 2.62988%
BRANCH_INDIRECT_CALL: 300210 0.150105%
BRANCH_RETURN: 5559960 2.77998%
BRANCH_OTHER: 0 0%

DRAM PAGES: 1048576
Allocated PAGES: 30918
