
*** ChampSim Multicore Out-of-Order Simulator ***

Warmup Instructions: 50000000
Simulation Instructions: 200000000
Number of CPUs: 1
LLC sets: 2048
LLC ways: 16
L0D sets: 16
L0D ways: 2
ROB size: 352
LQ size: 128
SQ size: 72
Secure Berti: ON
Berti: ON
Berti Fill: ON
On commit prefetching: OFF
Hit-based filter: ON
Time-guarding: ON
Free-slotting: ON
Leap-frogging: ON
Train prefetcher on L0D bypass: OFF
No translation penalty for prefetchers: OFF
Prefetch to L0D only: OFF
Prefetch to L1D only: OFF
Clean evictions: ON
Commit loads: ON
Commit write: ON
Fill commit loads to L2C, LLC: ON
DRAM IO FREQUENCY: 6400
ROB SIZE: 352
Off-chip DRAM Size: 4096 MB Channels: 1 Width: 64-bit Data Rate: 6400 MT/s
CPU 0 runs /home/sumon/secure_berti/GhostMinion/../../traces/spec/623.xalancbmk_s-165B.champsimtrace.xz
.xz
BTB has LRU replacement policy
ITLB has LRU replacement policy
DTLB has LRU replacement policy
STLB has LRU replacement policy
L1I has LRU replacement policy
L0D has LRU replacement policy
Berti version on_commit
History Sets: 8
History Ways: 16
BERTI Size: 16
BERTI Stride Size: 16
L1D has LRU replacement policy
L2C has LRU replacement policy
LLC has LRU replacement policy
Heartbeat CPU 0 instructions: 10000000 cycles: 3422209 heartbeat IPC: 2.92209 cumulative IPC: 2.92209 (Simulation time: 0 hr 1 min 22 sec) 
Heartbeat CPU 0 instructions: 20000001 cycles: 6841365 heartbeat IPC: 2.9247 cumulative IPC: 2.92339 (Simulation time: 0 hr 2 min 49 sec) 
Heartbeat CPU 0 instructions: 30000000 cycles: 10236962 heartbeat IPC: 2.94499 cumulative IPC: 2.93056 (Simulation time: 0 hr 4 min 13 sec) 
Heartbeat CPU 0 instructions: 40000003 cycles: 13644664 heartbeat IPC: 2.93453 cumulative IPC: 2.93155 (Simulation time: 0 hr 5 min 38 sec) 
Heartbeat CPU 0 instructions: 50000001 cycles: 17070179 heartbeat IPC: 2.91927 cumulative IPC: 2.92908 (Simulation time: 0 hr 6 min 59 sec) 

Warmup complete CPU 0 instructions: 50000001 cycles: 17070179 (Simulation time: 0 hr 6 min 59 sec) 

Heartbeat CPU 0 instructions: 60000003 cycles: 28508696 heartbeat IPC: 0.874239 cumulative IPC: 0.874239 (Simulation time: 0 hr 8 min 31 sec) 
Heartbeat CPU 0 instructions: 70000001 cycles: 39948800 heartbeat IPC: 0.874118 cumulative IPC: 0.874179 (Simulation time: 0 hr 10 min 5 sec) 
Heartbeat CPU 0 instructions: 80000001 cycles: 51384838 heartbeat IPC: 0.874429 cumulative IPC: 0.874262 (Simulation time: 0 hr 11 min 40 sec) 
Heartbeat CPU 0 instructions: 90000002 cycles: 62823823 heartbeat IPC: 0.874204 cumulative IPC: 0.874247 (Simulation time: 0 hr 13 min 17 sec) 
Heartbeat CPU 0 instructions: 100000001 cycles: 74259095 heartbeat IPC: 0.874487 cumulative IPC: 0.874295 (Simulation time: 0 hr 14 min 42 sec) 
Heartbeat CPU 0 instructions: 110000000 cycles: 85701295 heartbeat IPC: 0.873958 cumulative IPC: 0.874239 (Simulation time: 0 hr 16 min 3 sec) 
Heartbeat CPU 0 instructions: 120000000 cycles: 97132995 heartbeat IPC: 0.874761 cumulative IPC: 0.874313 (Simulation time: 0 hr 17 min 23 sec) 
Heartbeat CPU 0 instructions: 130000002 cycles: 108567978 heartbeat IPC: 0.87451 cumulative IPC: 0.874338 (Simulation time: 0 hr 18 min 43 sec) 
Heartbeat CPU 0 instructions: 140000002 cycles: 120005568 heartbeat IPC: 0.87431 cumulative IPC: 0.874335 (Simulation time: 0 hr 20 min 4 sec) 
Heartbeat CPU 0 instructions: 150000002 cycles: 131440839 heartbeat IPC: 0.874487 cumulative IPC: 0.87435 (Simulation time: 0 hr 21 min 24 sec) 
Heartbeat CPU 0 instructions: 160000000 cycles: 142876252 heartbeat IPC: 0.874476 cumulative IPC: 0.874362 (Simulation time: 0 hr 22 min 45 sec) 
Heartbeat CPU 0 instructions: 170000002 cycles: 154313737 heartbeat IPC: 0.874318 cumulative IPC: 0.874358 (Simulation time: 0 hr 23 min 59 sec) 
Heartbeat CPU 0 instructions: 180000000 cycles: 165750140 heartbeat IPC: 0.874401 cumulative IPC: 0.874361 (Simulation time: 0 hr 25 min 13 sec) 
Heartbeat CPU 0 instructions: 190000002 cycles: 177185746 heartbeat IPC: 0.874462 cumulative IPC: 0.874368 (Simulation time: 0 hr 26 min 30 sec) 
Heartbeat CPU 0 instructions: 200000002 cycles: 188618215 heartbeat IPC: 0.874702 cumulative IPC: 0.874391 (Simulation time: 0 hr 27 min 45 sec) 
Heartbeat CPU 0 instructions: 210000003 cycles: 200056929 heartbeat IPC: 0.874224 cumulative IPC: 0.87438 (Simulation time: 0 hr 28 min 54 sec) 
Heartbeat CPU 0 instructions: 220000000 cycles: 211729839 heartbeat IPC: 0.856684 cumulative IPC: 0.873319 (Simulation time: 0 hr 29 min 59 sec) 
Heartbeat CPU 0 instructions: 230000001 cycles: 223006817 heartbeat IPC: 0.886762 cumulative IPC: 0.874055 (Simulation time: 0 hr 31 min 7 sec) 
Heartbeat CPU 0 instructions: 240000002 cycles: 234082773 heartbeat IPC: 0.902857 cumulative IPC: 0.875525 (Simulation time: 0 hr 32 min 32 sec) 
Heartbeat CPU 0 instructions: 250000002 cycles: 245095870 heartbeat IPC: 0.90801 cumulative IPC: 0.877094 (Simulation time: 0 hr 34 min 10 sec) 
Finished CPU 0 instructions: 200000001 cycles: 228025691 cumulative IPC: 0.877094 (Simulation time: 0 hr 34 min 10 sec) 
 Instruction ID: 250000052

ChampSim completed all CPUs

Region of Interest Statistics

CPU 0 cumulative IPC: 0.877094 instructions: 200000001 cycles: 228025691
ITLB SPEC fills:          0  NON-SPEC fills:          0
ITLB Test counter :          0
ITLB Leapfrog:          0
ITLB MSHR merge:          0
ITLB TOTAL     ACCESS:   28384768  HIT:   28384757  MISS:         11  HIT %:        100  MISS %: 3.87532e-05   MPKI: 5.5e-05
ITLB LOAD TRANSLATION NON_SPEC    ACCESS:   28384768  HIT:   28384757  MISS:         11  HIT %:        100  MISS %: 3.87532e-05   MPKI: 5.5e-05
ITLB PREFETCH  REQUESTED:          0  ISSUED:          0  USEFUL:          0  USELESS:          0
ITLB USEFUL LOAD PREFETCHES:          0 PREFETCH ISSUED TO LOWER LEVEL:          0  ACCURACY: -nan
ITLB TIMELY PREFETCHES:          0 LATE PREFETCHES: 0 DROPPED PREFETCHES: 0
ITLB COMMIT LATE PREFETCHES: 0 MISSED OPPORTUNITY: 0 LATE IN PQ: 0 UNCOVERED: 0
ITLB COMMIT LATE MSHR PREFETCHES: 0
ITLB MPKI TOTAL: 0 MSHR LATE: 0 PQ LATE: 0 COMMIT LATE: 0 MISSED OPPORTUNITY: 0 UNCOVERED: 0
ITLB PREFETCHES SAME FILL-ORIGIN LEVEL: 0 DIFFERENT FILL-ORIGIN LEVEL: 0
ITLB AVERAGE MISS LATENCY: 347.455 cycles
ITLB AVERAGE MISS LATENCY LOAD: -nan cycles
ITLB AVERAGE MISS LATENCY PREFETCH: -nan cycles
ITLB AVERAGE MSHR OCCUPANCY: 0
ITLB MSHR FULL: 0
ITLB RQ	ACCESS:   37103506	FORWARD:          0	MERGED:    8718739	TO_CACHE:   28384767

DTLB SPEC fills:          0  NON-SPEC fills:          0
DTLB Test counter :          0
DTLB Leapfrog:          0
DTLB MSHR merge:          0
DTLB TOTAL     ACCESS:   42969434  HIT:   42903718  MISS:      65716  HIT %:    99.8471  MISS %:   0.152937   MPKI: 0.32858
DTLB LOAD TRANSLATION NON_SPEC    ACCESS:   42969434  HIT:   42903718  MISS:      65716  HIT %:    99.8471  MISS %:   0.152937   MPKI: 0.32858
DTLB PREFETCH  REQUESTED:          0  ISSUED:          0  USEFUL:          0  USELESS:          0
DTLB USEFUL LOAD PREFETCHES:          0 PREFETCH ISSUED TO LOWER LEVEL:          0  ACCURACY: -nan
DTLB TIMELY PREFETCHES:          0 LATE PREFETCHES: 0 DROPPED PREFETCHES: 0
DTLB COMMIT LATE PREFETCHES: 0 MISSED OPPORTUNITY: 0 LATE IN PQ: 0 UNCOVERED: 0
DTLB COMMIT LATE MSHR PREFETCHES: 0
DTLB MPKI TOTAL: 0 MSHR LATE: 0 PQ LATE: 0 COMMIT LATE: 0 MISSED OPPORTUNITY: 0 UNCOVERED: 0
DTLB PREFETCHES SAME FILL-ORIGIN LEVEL: 0 DIFFERENT FILL-ORIGIN LEVEL: 0
DTLB AVERAGE MISS LATENCY: 9.45569 cycles
DTLB AVERAGE MISS LATENCY LOAD: -nan cycles
DTLB AVERAGE MISS LATENCY PREFETCH: -nan cycles
DTLB AVERAGE MSHR OCCUPANCY: 0.000630422
DTLB MSHR FULL: 0
DTLB RQ	ACCESS:   46272145	FORWARD:          0	MERGED:    3302487	TO_CACHE:   42969658

STLB SPEC fills:          0  NON-SPEC fills:          0
STLB Test counter :          0
STLB Leapfrog:          0
STLB MSHR merge:          0
STLB TOTAL     ACCESS:    9274152  HIT:    9273405  MISS:        747  HIT %:    99.9919  MISS %: 0.00805464   MPKI: 0.003735
STLB LOAD TRANSLATION NON_SPEC    ACCESS:      65727  HIT:      64980  MISS:        747  HIT %:    98.8635  MISS %:    1.13652   MPKI: 0.003735
STLB TRANSLATION FROM L1D PREFETCHER NON_SPEC    ACCESS:    9208425  HIT:    9208425  MISS:          0  HIT %:        100  MISS %:          0   MPKI: 0
STLB PREFETCH  REQUESTED:          0  ISSUED:          0  USEFUL:          0  USELESS:          0
STLB USEFUL LOAD PREFETCHES:          0 PREFETCH ISSUED TO LOWER LEVEL:          0  ACCURACY: -nan
STLB TIMELY PREFETCHES:          0 LATE PREFETCHES: 0 DROPPED PREFETCHES: 30939
STLB COMMIT LATE PREFETCHES: 0 MISSED OPPORTUNITY: 0 LATE IN PQ: 0 UNCOVERED: 0
STLB COMMIT LATE MSHR PREFETCHES: 0
STLB MPKI TOTAL: 0 MSHR LATE: 0 PQ LATE: 0 COMMIT LATE: 0 MISSED OPPORTUNITY: 0 UNCOVERED: 0
STLB PREFETCHES SAME FILL-ORIGIN LEVEL: 0 DIFFERENT FILL-ORIGIN LEVEL: 0
STLB AVERAGE MISS LATENCY: 290.874 cycles
STLB AVERAGE MISS LATENCY LOAD: -nan cycles
STLB AVERAGE MISS LATENCY PREFETCH: -nan cycles
STLB AVERAGE MSHR OCCUPANCY: 0.00644289
STLB MSHR FULL: 0
STLB RQ	ACCESS:   28465232	FORWARD:          0	MERGED:   19158536	TO_CACHE:    9306696

STLB Hit, L1D data hit: 0
STLB Hit, L2C data hit: 0
STLB Hit, LLC data hit: 0
STLB Hit, LLC data miss: 0
STLB STLB hints to L2: 0
L0D SPEC fills:   32003898  NON-SPEC fills:          0
L0D TimeGuard Request with older TS:     107498 Restricted eviction:      18081 read:       1225
L0D Test counter :          0
L0D Leapfrog:          0
L0D MSHR merge:    1314459
L0D TOTAL     ACCESS:   41990592  HIT:    4177280  MISS:   37813312  HIT %:    9.94813  MISS %:    90.0519   MPKI: 189.067
L0D LOAD      TOTAL       ACCESS:   41990592  HIT:    4177280  MISS:   37813312  HIT %:    9.94813  MISS %:    90.0519   MPKI: 189.067
L0D LOAD      NON_SPEC    ACCESS:    5956966  HIT:     165633  MISS:    5791333  HIT %:    2.78049  MISS %:    97.2195   MPKI: 28.9567
L0D LOAD      SPEC        ACCESS:   36033626  HIT:    4011647  MISS:   32021979  HIT %:    11.1331  MISS %:    88.8669   MPKI: 160.11
L0D PREFETCH  REQUESTED:          0  ISSUED:          0  USEFUL:          0  USELESS:          0
L0D USEFUL LOAD PREFETCHES:          0 PREFETCH ISSUED TO LOWER LEVEL:          0  ACCURACY: -nan
L0D TIMELY PREFETCHES:          0 LATE PREFETCHES: 0 DROPPED PREFETCHES: 0
L0D COMMIT LATE PREFETCHES: 0 MISSED OPPORTUNITY: 0 LATE IN PQ: 0 UNCOVERED: 0
L0D COMMIT LATE MSHR PREFETCHES: 0
L0D MPKI TOTAL: 195.639 MSHR LATE: 0 PQ LATE: 0 COMMIT LATE: 0 MISSED OPPORTUNITY: 0 UNCOVERED: 0
L0D PREFETCHES SAME FILL-ORIGIN LEVEL: 0 DIFFERENT FILL-ORIGIN LEVEL: 0
L0D AVERAGE MISS LATENCY: 5.17529 cycles
L0D AVERAGE MISS LATENCY LOAD: 5.17529 cycles
L0D AVERAGE MISS LATENCY PREFETCH: -nan cycles
L0D AVERAGE MSHR OCCUPANCY: 0.468422
L0D MSHR FULL: 0
L0D RQ	ACCESS:   58954087	FORWARD:          0	MERGED:   15649037	TO_CACHE:   43305050
L0D WQ	ACCESS:    2967095	FORWARD:          0	MERGED:          0	TO_CACHE:    2967095

L1D SPEC fills:          0  NON-SPEC fills:      36866
L1D Test counter :      22275
L1D Leapfrog:          0
L1D MSHR merge:       1160
L1D TOTAL     ACCESS:   59782659  HIT:   55356468  MISS:    4426191  HIT %:    92.5962  MISS %:     7.4038   MPKI: 22.131
L1D LOAD      TOTAL       ACCESS:   37813238  HIT:   37642911  MISS:     170327  HIT %:    99.5496  MISS %:   0.450443   MPKI: 0.851635
L1D LOAD      NON_SPEC    ACCESS:    5791319  HIT:    5754453  MISS:      36866  HIT %:    99.3634  MISS %:   0.636573   MPKI: 0.18433
L1D LOAD      SPEC        ACCESS:   32021919  HIT:   31888458  MISS:     133461  HIT %:    99.5832  MISS %:    0.41678   MPKI: 0.667305
L1D RFO       NON_SPEC    ACCESS:    2958301  HIT:    2954479  MISS:       3822  HIT %:    99.8708  MISS %:   0.129196   MPKI: 0.01911
L1D PREFETCH  NON_SPEC    ACCESS:   18768604  HIT:   14649023  MISS:    4119581  HIT %:    78.0507  MISS %:    21.9493   MPKI: 20.5979
L1D COMMIT LOAD NON_SPEC    ACCESS:     104240  HIT:     103710  MISS:        530  HIT %:    99.4916  MISS %:   0.508442   MPKI: 0.00265
L1D COMMIT WRITE NON_SPEC    ACCESS:     138276  HIT:       6345  MISS:     131931  HIT %:    4.58865  MISS %:    95.4114   MPKI: 0.659655
L1D PREFETCH  REQUESTED:   78261675  ISSUED:   67089064  USEFUL:    3848016  USELESS:     271545
L1D USEFUL LOAD PREFETCHES:    3848016 PREFETCH ISSUED TO LOWER LEVEL:   13444406  ACCURACY: 28.6217
L1D TIMELY PREFETCHES:    3848016 LATE PREFETCHES: 1087 DROPPED PREFETCHES: 56962
L1D COMMIT LATE PREFETCHES: 0 MISSED OPPORTUNITY: 0 LATE IN PQ: 0 UNCOVERED: 0
L1D COMMIT LATE MSHR PREFETCHES: 0
L1D MPKI TOTAL: 0.852 MSHR LATE: 0.005435 PQ LATE: 0 COMMIT LATE: 0 MISSED OPPORTUNITY: 0 UNCOVERED: 0
L1D PREFETCHES SAME FILL-ORIGIN LEVEL: 4120675 DIFFERENT FILL-ORIGIN LEVEL: 9323731
L1D AVERAGE MISS LATENCY: 45.3464 cycles
L1D AVERAGE MISS LATENCY LOAD: 22.8581 cycles
L1D AVERAGE MISS LATENCY PREFETCH: 47.7064 cycles
L1D AVERAGE MSHR OCCUPANCY: 0.674358
L1D MSHR FULL: 4.86038e-05
L1D RQ	ACCESS:   38055195	FORWARD:          0	MERGED:     137521	TO_CACHE:   37917673
L1D WQ	ACCESS:    3105371	FORWARD:          1	MERGED:        521	TO_CACHE:    3104850
L1D PQ	ACCESS:   67089064	FORWARD:          0	MERGED:   38689559	TO_CACHE:   28399505

L1D UNIQUE REGIONS ACCESSED: 0
L1D REGIONS CONFLICTS: 0
L1D Cross Page Prefetch Requests: 38213592
L1D Same Page Prefetch Requests: 47568956
L1D ROI Sum of L1D PQ occupancy: 455479042
L1D PREFETCHES PUSHED FROM L2C: 0
L1I SPEC fills:          0  NON-SPEC fills:          0
L1I Test counter :          0
L1I Leapfrog:          0
L1I MSHR merge:          8
L1I TOTAL     ACCESS:   37103497  HIT:   37103405  MISS:         92  HIT %:    99.9998  MISS %: 0.000247955   MPKI: 0.00046
L1I LOAD      TOTAL       ACCESS:   37103497  HIT:   37103405  MISS:         92  HIT %:    99.9998  MISS %: 0.000247955   MPKI: 0.00046
L1I LOAD      NON_SPEC    ACCESS:   37103497  HIT:   37103405  MISS:         92  HIT %:    99.9998  MISS %: 0.000247955   MPKI: 0.00046
L1I PREFETCH  REQUESTED:          0  ISSUED:          0  USEFUL:          0  USELESS:          0
L1I USEFUL LOAD PREFETCHES:          0 PREFETCH ISSUED TO LOWER LEVEL:          0  ACCURACY: -nan
L1I TIMELY PREFETCHES:          0 LATE PREFETCHES: 0 DROPPED PREFETCHES: 0
L1I COMMIT LATE PREFETCHES: 0 MISSED OPPORTUNITY: 0 LATE IN PQ: 0 UNCOVERED: 0
L1I COMMIT LATE MSHR PREFETCHES: 0
L1I MPKI TOTAL: 0.0005 MSHR LATE: 0 PQ LATE: 0 COMMIT LATE: 0 MISSED OPPORTUNITY: 0 UNCOVERED: 0
L1I PREFETCHES SAME FILL-ORIGIN LEVEL: 0 DIFFERENT FILL-ORIGIN LEVEL: 0
L1I AVERAGE MISS LATENCY: 179.989 cycles
L1I AVERAGE MISS LATENCY LOAD: 179.989 cycles
L1I AVERAGE MISS LATENCY PREFETCH: -nan cycles
L1I AVERAGE MSHR OCCUPANCY: 9.43307e-07
L1I MSHR FULL: 0
L1I RQ	ACCESS:   73298372	FORWARD:          0	MERGED:   36194866	TO_CACHE:   37103506

BTB SPEC fills:          0  NON-SPEC fills:          0
BTB Test counter :          0
BTB Leapfrog:          0
BTB MSHR merge:          0
BTB TOTAL     ACCESS:   32869649  HIT:   32861232  MISS:       8417  HIT %:    99.9744  MISS %:  0.0256072   MPKI: 0.042085
BTB BRANCH_DIRECT_JUMP	ACCESS:      10018  HIT:       9991  MISS:         27
BTB BRANCH_INDIRECT	ACCESS:          0  HIT:          0  MISS:          0
BTB BRANCH_CONDITIONAL	ACCESS:   30064978  HIT:   30064867  MISS:        111
BTB BRANCH_DIRECT_CALL	ACCESS:     706558  HIT:     706534  MISS:         24
BTB BRANCH_INDIRECT_CALL	ACCESS:     690769  HIT:     690752  MISS:         17
BTB BRANCH_RETURN	ACCESS:    1397326  HIT:    1389088  MISS:       8238
BTB BRANCH_OTHER ACCESS:          0  HIT:          0  MISS:          0

L2C SPEC fills:          0  NON-SPEC fills:       6240
L2C Test counter :      17954
L2C Leapfrog:          0
L2C MSHR merge:        540
L2C TOTAL     ACCESS:   13427658  HIT:    9934049  MISS:    3493609  HIT %:     73.982  MISS %:     26.018   MPKI: 17.468
L2C LOAD      TOTAL       ACCESS:     169200  HIT:     146757  MISS:      22443  HIT %:    86.7358  MISS %:    13.2642   MPKI: 0.112215
L2C LOAD      NON_SPEC    ACCESS:      36882  HIT:      30550  MISS:       6332  HIT %:    82.8317  MISS %:    17.1683   MPKI: 0.03166
L2C LOAD      SPEC        ACCESS:     132318  HIT:     116207  MISS:      16111  HIT %:     87.824  MISS %:     12.176   MPKI: 0.080555
L2C RFO       NON_SPEC    ACCESS:       3822  HIT:       2382  MISS:       1440  HIT %:    62.3234  MISS %:    37.6766   MPKI: 0.0072
L2C PREFETCH  NON_SPEC    ACCESS:   13065926  HIT:    9613820  MISS:    3452106  HIT %:    73.5793  MISS %:    26.4207   MPKI: 17.2605
L2C WRITEBACK NON_SPEC    ACCESS:       7485  HIT:       7484  MISS:          1  HIT %:    99.9866  MISS %:  0.0133601   MPKI: 5e-06
L2C CLEAN_EVICTION NON_SPEC    ACCESS:      22275  HIT:       6246  MISS:      16029  HIT %:    28.0404  MISS %:    71.9596   MPKI: 0.080145
L2C COMMIT LOAD NON_SPEC    ACCESS:        530  HIT:        408  MISS:        122  HIT %:    76.9811  MISS %:    23.0189   MPKI: 0.00061
L2C LOAD TRANSLATION NON_SPEC    ACCESS:       3725  HIT:       3367  MISS:        358  HIT %:    90.3893  MISS %:    9.61074   MPKI: 0.00179
L2C TRANSLATION FROM L1D PREFETCHER NON_SPEC    ACCESS:     154695  HIT:     153585  MISS:       1110  HIT %:    99.2825  MISS %:   0.717541   MPKI: 0.00555
L2C PREFETCH  REQUESTED:          0  ISSUED:          0  USEFUL:      57771  USELESS:    3400535
L2C USEFUL LOAD PREFETCHES:      57771 PREFETCH ISSUED TO LOWER LEVEL:    3452646  ACCURACY: 1.67324
L2C TIMELY PREFETCHES:      57771 LATE PREFETCHES: 540 DROPPED PREFETCHES: 0
L2C COMMIT LATE PREFETCHES: 0 MISSED OPPORTUNITY: 0 LATE IN PQ: 0 UNCOVERED: 0
L2C COMMIT LATE MSHR PREFETCHES: 0
L2C MPKI TOTAL: 0.112215 MSHR LATE: 0.0027 PQ LATE: 0 COMMIT LATE: 0 MISSED OPPORTUNITY: 0 UNCOVERED: 0
L2C PREFETCHES SAME FILL-ORIGIN LEVEL: 2425563 DIFFERENT FILL-ORIGIN LEVEL: 0
L2C AVERAGE MISS LATENCY: 124.635 cycles
L2C AVERAGE MISS LATENCY LOAD: 82.8129 cycles
L2C AVERAGE MISS LATENCY PREFETCH: 125.447 cycles
L2C AVERAGE MSHR OCCUPANCY: 1.26428
L2C MSHR FULL: 0.000460684
L2C RQ	ACCESS:     332104	FORWARD:          0	MERGED:          0	TO_CACHE:     331972
L2C WQ	ACCESS:      29760	FORWARD:        139	MERGED:          0	TO_CACHE:      29760
L2C PQ	ACCESS:   13444355	FORWARD:          0	MERGED:       3310	TO_CACHE:   13441038

L2C Instructions Evicting Data 92
L2C Translations Evicting Data 1468
L2C Data Evicting Data 3458518
L2C Instructions Evicting Instructions 0
L2C Translations Evicting Instructions 0
L2C Data Evicting Instructions 53
L2C Instructions Evicting Translations 0
L2C Translations Evicting Translations 0
L2C Data Evicting Translations 1337
L2C Dense regions hint from L2: 0
PSCL5 SPEC fills:          0  NON-SPEC fills:          0
PSCL5 Test counter :          0
PSCL5 Leapfrog:          0
PSCL5 MSHR merge:          0
PSCL5 TOTAL     ACCESS:          0  HIT:          0  MISS:          0  HIT %:       -nan  MISS %:       -nan   MPKI: 0
PSCL5 PREFETCH  REQUESTED:          0  ISSUED:          0  USEFUL:          0  USELESS:          0
PSCL5 USEFUL LOAD PREFETCHES:          0 PREFETCH ISSUED TO LOWER LEVEL:          0  ACCURACY: -nan
PSCL5 TIMELY PREFETCHES:          0 LATE PREFETCHES: 0 DROPPED PREFETCHES: 0
PSCL5 COMMIT LATE PREFETCHES: 0 MISSED OPPORTUNITY: 0 LATE IN PQ: 0 UNCOVERED: 0
PSCL5 COMMIT LATE MSHR PREFETCHES: 0
PSCL5 MPKI TOTAL: 0 MSHR LATE: 0 PQ LATE: 0 COMMIT LATE: 0 MISSED OPPORTUNITY: 0 UNCOVERED: 0
PSCL5 PREFETCHES SAME FILL-ORIGIN LEVEL: 0 DIFFERENT FILL-ORIGIN LEVEL: 0

PSCL4 SPEC fills:          0  NON-SPEC fills:          0
PSCL4 Test counter :          0
PSCL4 Leapfrog:          0
PSCL4 MSHR merge:          0
PSCL4 TOTAL     ACCESS:          0  HIT:          0  MISS:          0  HIT %:       -nan  MISS %:       -nan   MPKI: 0
PSCL4 PREFETCH  REQUESTED:          0  ISSUED:          0  USEFUL:          0  USELESS:          0
PSCL4 USEFUL LOAD PREFETCHES:          0 PREFETCH ISSUED TO LOWER LEVEL:          0  ACCURACY: -nan
PSCL4 TIMELY PREFETCHES:          0 LATE PREFETCHES: 0 DROPPED PREFETCHES: 0
PSCL4 COMMIT LATE PREFETCHES: 0 MISSED OPPORTUNITY: 0 LATE IN PQ: 0 UNCOVERED: 0
PSCL4 COMMIT LATE MSHR PREFETCHES: 0
PSCL4 MPKI TOTAL: 0 MSHR LATE: 0 PQ LATE: 0 COMMIT LATE: 0 MISSED OPPORTUNITY: 0 UNCOVERED: 0
PSCL4 PREFETCHES SAME FILL-ORIGIN LEVEL: 0 DIFFERENT FILL-ORIGIN LEVEL: 0

PSCL3 SPEC fills:          0  NON-SPEC fills:          0
PSCL3 Test counter :          0
PSCL3 Leapfrog:          0
PSCL3 MSHR merge:          0
PSCL3 TOTAL     ACCESS:          0  HIT:          0  MISS:          0  HIT %:       -nan  MISS %:       -nan   MPKI: 0
PSCL3 PREFETCH  REQUESTED:          0  ISSUED:          0  USEFUL:          0  USELESS:          0
PSCL3 USEFUL LOAD PREFETCHES:          0 PREFETCH ISSUED TO LOWER LEVEL:          0  ACCURACY: -nan
PSCL3 TIMELY PREFETCHES:          0 LATE PREFETCHES: 0 DROPPED PREFETCHES: 0
PSCL3 COMMIT LATE PREFETCHES: 0 MISSED OPPORTUNITY: 0 LATE IN PQ: 0 UNCOVERED: 0
PSCL3 COMMIT LATE MSHR PREFETCHES: 0
PSCL3 MPKI TOTAL: 0 MSHR LATE: 0 PQ LATE: 0 COMMIT LATE: 0 MISSED OPPORTUNITY: 0 UNCOVERED: 0
PSCL3 PREFETCHES SAME FILL-ORIGIN LEVEL: 0 DIFFERENT FILL-ORIGIN LEVEL: 0

PSCL2 SPEC fills:          0  NON-SPEC fills:          0
PSCL2 Test counter :          0
PSCL2 Leapfrog:          0
PSCL2 MSHR merge:          0
PSCL2 TOTAL     ACCESS:          0  HIT:          0  MISS:          0  HIT %:       -nan  MISS %:       -nan   MPKI: 0
PSCL2 PREFETCH  REQUESTED:          0  ISSUED:          0  USEFUL:          0  USELESS:          0
PSCL2 USEFUL LOAD PREFETCHES:          0 PREFETCH ISSUED TO LOWER LEVEL:          0  ACCURACY: -nan
PSCL2 TIMELY PREFETCHES:          0 LATE PREFETCHES: 0 DROPPED PREFETCHES: 0
PSCL2 COMMIT LATE PREFETCHES: 0 MISSED OPPORTUNITY: 0 LATE IN PQ: 0 UNCOVERED: 0
PSCL2 COMMIT LATE MSHR PREFETCHES: 0
PSCL2 MPKI TOTAL: 0 MSHR LATE: 0 PQ LATE: 0 COMMIT LATE: 0 MISSED OPPORTUNITY: 0 UNCOVERED: 0
PSCL2 PREFETCHES SAME FILL-ORIGIN LEVEL: 0 DIFFERENT FILL-ORIGIN LEVEL: 0

LLC SPEC fills:          0  NON-SPEC fills:       5023
LLC Test counter :      13127
LLC Leapfrog:          0
LLC MSHR merge:          0
LLC TOTAL     ACCESS:    3496710  HIT:      98882  MISS:    3397828  HIT %:    2.82786  MISS %:    97.1721   MPKI: 16.9891
LLC LOAD      TOTAL       ACCESS:      21902  HIT:       9242  MISS:      12660  HIT %:    42.1971  MISS %:    57.8029   MPKI: 0.0633
LLC LOAD      NON_SPEC    ACCESS:       6260  HIT:       1145  MISS:       5115  HIT %:    18.2907  MISS %:    81.7093   MPKI: 0.025575
LLC LOAD      SPEC        ACCESS:      15642  HIT:       8097  MISS:       7545  HIT %:    51.7645  MISS %:    48.2355   MPKI: 0.037725
LLC RFO       NON_SPEC    ACCESS:       1440  HIT:          0  MISS:       1440  HIT %:          0  MISS %:        100   MPKI: 0.0072
LLC PREFETCH  NON_SPEC    ACCESS:    3452646  HIT:      81333  MISS:    3371313  HIT %:    2.35567  MISS %:    97.6443   MPKI: 16.8566
LLC WRITEBACK NON_SPEC    ACCESS:       1178  HIT:       1178  MISS:          0  HIT %:        100  MISS %:          0   MPKI: 0
LLC CLEAN_EVICTION NON_SPEC    ACCESS:      17954  HIT:       7100  MISS:      10854  HIT %:    39.5455  MISS %:    60.4545   MPKI: 0.05427
LLC COMMIT LOAD NON_SPEC    ACCESS:        122  HIT:         22  MISS:        100  HIT %:    18.0328  MISS %:    81.9672   MPKI: 0.0005
LLC LOAD TRANSLATION NON_SPEC    ACCESS:        358  HIT:          2  MISS:        356  HIT %:   0.558659  MISS %:    99.4413   MPKI: 0.00178
LLC TRANSLATION FROM L1D PREFETCHER NON_SPEC    ACCESS:       1110  HIT:          5  MISS:       1105  HIT %:    0.45045  MISS %:    99.5495   MPKI: 0.005525
LLC PREFETCH  REQUESTED:          0  ISSUED:          0  USEFUL:        342  USELESS:    3375612
LLC USEFUL LOAD PREFETCHES:        342 PREFETCH ISSUED TO LOWER LEVEL:    3371313  ACCURACY: 0.0101444
LLC TIMELY PREFETCHES:        342 LATE PREFETCHES: 0 DROPPED PREFETCHES: 0
LLC COMMIT LATE PREFETCHES: 0 MISSED OPPORTUNITY: 0 LATE IN PQ: 0 UNCOVERED: 0
LLC COMMIT LATE MSHR PREFETCHES: 0
LLC MPKI TOTAL: 0.0633 MSHR LATE: 0 PQ LATE: 0 COMMIT LATE: 0 MISSED OPPORTUNITY: 0 UNCOVERED: 0
LLC PREFETCHES SAME FILL-ORIGIN LEVEL: 0 DIFFERENT FILL-ORIGIN LEVEL: 0
LLC AVERAGE MISS LATENCY: 97.5026 cycles
LLC AVERAGE MISS LATENCY LOAD: 101.895 cycles
LLC AVERAGE MISS LATENCY PREFETCH: 97.7616 cycles
LLC AVERAGE MSHR OCCUPANCY: 1.4706
LLC MSHR FULL: 0
LLC RQ	ACCESS:      24933	FORWARD:          0	MERGED:          0	TO_CACHE:      24932
LLC WQ	ACCESS:      19132	FORWARD:          1	MERGED:          0	TO_CACHE:      19132
LLC PQ	ACCESS:    3452646	FORWARD:          0	MERGED:          0	TO_CACHE:    3452646

LLC Dense regions hint to LLC: 0

RAW hits: 11180
Loads Generated: 58965269
Loads sent to L1D: 58954087
Stores Generated: 2967094
Stores sent to L1D: 2967095
Major fault: 0 Minor fault: 1462
Allocated PAGES: 1462
Total Load insts: 73705018
Total Non-spec loads: 6156666
Percentage of speculative loads: 91.6469

LeapFrogging counter: 91
Commit hits: 31933886 miss: 21058742
Commit hit %: 60.261 miss %: 39.739
Commits not translated: 0
Loads retired: 170327
Stores retired: 2967095
Cache fills: 170327
L1D response latency: 22.8581 cycles
Load retirement latency: 58.0951 cycles
OOO test counter: 0
Discarded buffer inserts: 31933886 hits: 7494 hit %: 0.0234672
Filter prediction accuracy: 99.9883
ALL MISSES SIZE: 1054
LATENCY_FILL: 22.7719 170330
LATENCY_FILL_ROB: 49.5535 170230
test counter pref: 1286742
Max ROB Extended: 16

DRAM Statistics
 CHANNEL 0
 RQ ROW_BUFFER_HIT:    2974852  ROW_BUFFER_MISS:     412121
 DBUS_CONGESTED:        100
 WQ ROW_BUFFER_HIT:       1804  ROW_BUFFER_MISS:      12500  FULL:          0

 AVG_CONGESTED_CYCLE: 4
 All warmup complete: 2
Channel 0 Bank busy for read cycles: 0
Channel 0 Bank busy for write cycles: 0
Channel 0
Rank 0
0banks busy for read cycles: 138280390
0banks busy for write cycles: 12214
1banks busy for read cycles: 32004100
1banks busy for write cycles: 2038833
2banks busy for read cycles: 19407047
2banks busy for write cycles: 226050
3banks busy for read cycles: 16063331
3banks busy for write cycles: 47196
4banks busy for read cycles: 11493254
4banks busy for write cycles: 14058
5banks busy for read cycles: 5803533
5banks busy for write cycles: 4051
6banks busy for read cycles: 1987183
6banks busy for write cycles: 1515
7banks busy for read cycles: 495714
7banks busy for write cycles: 787
8banks busy for read cycles: 146436
8banks busy for write cycles: 0

CPU 0 Branch Prediction Accuracy: 99.9889% MPKI: 0.030745 Average ROB Occupancy at Mispredict: 46.5752
Branch types
NOT_BRANCH: 144470819 72.2354%
BRANCH_DIRECT_JUMP: 10018 0.005009%
BRANCH_INDIRECT: 0 0%
BRANCH_CONDITIONAL: 52724204 26.3621%
BRANCH_DIRECT_CALL: 706558 0.353279%
BRANCH_INDIRECT_CALL: 690769 0.345384%
BRANCH_RETURN: 1397326 0.698663%
BRANCH_OTHER: 0 0%

DRAM PAGES: 1048576
Allocated PAGES: 1462
