
*** ChampSim Multicore Out-of-Order Simulator ***

Warmup Instructions: 50000000
Simulation Instructions: 200000000
Number of CPUs: 1
LLC sets: 2048
LLC ways: 16
L0D sets: 16
L0D ways: 2
ROB size: 352
LQ size: 128
SQ size: 72
Secure Berti: ON
Berti: ON
Berti Fill: ON
On commit prefetching: OFF
Hit-based filter: ON
Time-guarding: ON
Free-slotting: ON
Leap-frogging: ON
Train prefetcher on L0D bypass: OFF
No translation penalty for prefetchers: OFF
Prefetch to L0D only: OFF
Prefetch to L1D only: OFF
Clean evictions: ON
Commit loads: ON
Commit write: ON
Fill commit loads to L2C, LLC: ON
DRAM IO FREQUENCY: 6400
ROB SIZE: 352
Off-chip DRAM Size: 4096 MB Channels: 1 Width: 64-bit Data Rate: 6400 MT/s
CPU 0 runs /home/sumon/secure_berti/GhostMinion/../../traces/spec/641.leela_s-1083B.champsimtrace.xz
.xz
BTB has LRU replacement policy
ITLB has LRU replacement policy
DTLB has LRU replacement policy
STLB has LRU replacement policy
L1I has LRU replacement policy
L0D has LRU replacement policy
Berti version on_commit
History Sets: 8
History Ways: 16
BERTI Size: 16
BERTI Stride Size: 16
L1D has LRU replacement policy
L2C has LRU replacement policy
LLC has LRU replacement policy
Heartbeat CPU 0 instructions: 10000000 cycles: 5022473 heartbeat IPC: 1.99105 cumulative IPC: 1.99105 (Simulation time: 0 hr 1 min 14 sec) 
Heartbeat CPU 0 instructions: 20000000 cycles: 10097091 heartbeat IPC: 1.97059 cumulative IPC: 1.98077 (Simulation time: 0 hr 2 min 35 sec) 
Heartbeat CPU 0 instructions: 30000003 cycles: 15225171 heartbeat IPC: 1.95005 cumulative IPC: 1.97042 (Simulation time: 0 hr 3 min 54 sec) 
Heartbeat CPU 0 instructions: 40000003 cycles: 20290035 heartbeat IPC: 1.97439 cumulative IPC: 1.97141 (Simulation time: 0 hr 5 min 15 sec) 
Heartbeat CPU 0 instructions: 50000003 cycles: 25351556 heartbeat IPC: 1.97569 cumulative IPC: 1.97227 (Simulation time: 0 hr 6 min 33 sec) 

Warmup complete CPU 0 instructions: 50000003 cycles: 25351556 (Simulation time: 0 hr 6 min 33 sec) 

Heartbeat CPU 0 instructions: 60000002 cycles: 50458976 heartbeat IPC: 0.398289 cumulative IPC: 0.398289 (Simulation time: 0 hr 8 min 4 sec) 
Heartbeat CPU 0 instructions: 70000000 cycles: 75804251 heartbeat IPC: 0.394551 cumulative IPC: 0.396411 (Simulation time: 0 hr 9 min 33 sec) 
Heartbeat CPU 0 instructions: 80000000 cycles: 100831052 heartbeat IPC: 0.399572 cumulative IPC: 0.397459 (Simulation time: 0 hr 11 min 3 sec) 
Heartbeat CPU 0 instructions: 90000003 cycles: 126512596 heartbeat IPC: 0.389385 cumulative IPC: 0.395409 (Simulation time: 0 hr 12 min 36 sec) 
Heartbeat CPU 0 instructions: 100000002 cycles: 151873612 heartbeat IPC: 0.394306 cumulative IPC: 0.395188 (Simulation time: 0 hr 14 min 4 sec) 
Heartbeat CPU 0 instructions: 110000000 cycles: 176785517 heartbeat IPC: 0.401414 cumulative IPC: 0.396212 (Simulation time: 0 hr 15 min 30 sec) 
Heartbeat CPU 0 instructions: 120000000 cycles: 201606510 heartbeat IPC: 0.402885 cumulative IPC: 0.397152 (Simulation time: 0 hr 16 min 59 sec) 
Heartbeat CPU 0 instructions: 130000001 cycles: 226792891 heartbeat IPC: 0.39704 cumulative IPC: 0.397138 (Simulation time: 0 hr 18 min 29 sec) 
Heartbeat CPU 0 instructions: 140000000 cycles: 252039549 heartbeat IPC: 0.396092 cumulative IPC: 0.397021 (Simulation time: 0 hr 19 min 59 sec) 
Heartbeat CPU 0 instructions: 150000000 cycles: 277068670 heartbeat IPC: 0.399535 cumulative IPC: 0.397271 (Simulation time: 0 hr 21 min 30 sec) 
Heartbeat CPU 0 instructions: 160000000 cycles: 301852106 heartbeat IPC: 0.403495 cumulative IPC: 0.397829 (Simulation time: 0 hr 23 min 3 sec) 
Heartbeat CPU 0 instructions: 170000001 cycles: 326761505 heartbeat IPC: 0.401455 cumulative IPC: 0.398129 (Simulation time: 0 hr 24 min 39 sec) 
Heartbeat CPU 0 instructions: 180000000 cycles: 351847747 heartbeat IPC: 0.398625 cumulative IPC: 0.398167 (Simulation time: 0 hr 26 min 17 sec) 
Heartbeat CPU 0 instructions: 190000001 cycles: 376823451 heartbeat IPC: 0.400389 cumulative IPC: 0.398325 (Simulation time: 0 hr 27 min 59 sec) 
Heartbeat CPU 0 instructions: 200000002 cycles: 401917337 heartbeat IPC: 0.398503 cumulative IPC: 0.398337 (Simulation time: 0 hr 29 min 39 sec) 
Heartbeat CPU 0 instructions: 210000003 cycles: 427439058 heartbeat IPC: 0.391823 cumulative IPC: 0.397923 (Simulation time: 0 hr 31 min 23 sec) 
Heartbeat CPU 0 instructions: 220000000 cycles: 452849960 heartbeat IPC: 0.393532 cumulative IPC: 0.397662 (Simulation time: 0 hr 33 min 3 sec) 
Heartbeat CPU 0 instructions: 230000000 cycles: 478324422 heartbeat IPC: 0.39255 cumulative IPC: 0.397375 (Simulation time: 0 hr 34 min 36 sec) 
Heartbeat CPU 0 instructions: 240000000 cycles: 503432972 heartbeat IPC: 0.398271 cumulative IPC: 0.397422 (Simulation time: 0 hr 35 min 37 sec) 
Heartbeat CPU 0 instructions: 250000000 cycles: 555519234 heartbeat IPC: 0.191989 cumulative IPC: 0.377239 (Simulation time: 0 hr 38 min 21 sec) 
Finished CPU 0 instructions: 200000000 cycles: 530167720 cumulative IPC: 0.377239 (Simulation time: 0 hr 38 min 21 sec) 
 Instruction ID: 250000385

ChampSim completed all CPUs

Region of Interest Statistics

CPU 0 cumulative IPC: 0.377239 instructions: 200000000 cycles: 530167720
ITLB SPEC fills:          0  NON-SPEC fills:          0
ITLB Test counter :          0
ITLB Leapfrog:          0
ITLB MSHR merge:          0
ITLB TOTAL     ACCESS:   35712096  HIT:   35711934  MISS:        162  HIT %:    99.9995  MISS %: 0.000453628   MPKI: 0.00081
ITLB LOAD TRANSLATION NON_SPEC    ACCESS:   35712096  HIT:   35711934  MISS:        162  HIT %:    99.9995  MISS %: 0.000453628   MPKI: 0.00081
ITLB PREFETCH  REQUESTED:          0  ISSUED:          0  USEFUL:          0  USELESS:          0
ITLB USEFUL LOAD PREFETCHES:          0 PREFETCH ISSUED TO LOWER LEVEL:          0  ACCURACY: -nan
ITLB TIMELY PREFETCHES:          0 LATE PREFETCHES: 0 DROPPED PREFETCHES: 0
ITLB COMMIT LATE PREFETCHES: 0 MISSED OPPORTUNITY: 0 LATE IN PQ: 0 UNCOVERED: 0
ITLB COMMIT LATE MSHR PREFETCHES: 0
ITLB MPKI TOTAL: 0 MSHR LATE: 0 PQ LATE: 0 COMMIT LATE: 0 MISSED OPPORTUNITY: 0 UNCOVERED: 0
ITLB PREFETCHES SAME FILL-ORIGIN LEVEL: 0 DIFFERENT FILL-ORIGIN LEVEL: 0
ITLB AVERAGE MISS LATENCY: 185.716 cycles
ITLB AVERAGE MISS LATENCY LOAD: -nan cycles
ITLB AVERAGE MISS LATENCY PREFETCH: -nan cycles
ITLB AVERAGE MSHR OCCUPANCY: 1.76411e-06
ITLB MSHR FULL: 0
ITLB RQ	ACCESS:   40335806	FORWARD:          0	MERGED:    4623674	TO_CACHE:   35712132

DTLB SPEC fills:          0  NON-SPEC fills:          0
DTLB Test counter :          0
DTLB Leapfrog:          0
DTLB MSHR merge:          0
DTLB TOTAL     ACCESS:   64760610  HIT:   64656752  MISS:     103858  HIT %:    99.8396  MISS %:   0.160372   MPKI: 0.51929
DTLB LOAD TRANSLATION NON_SPEC    ACCESS:   64760610  HIT:   64656752  MISS:     103858  HIT %:    99.8396  MISS %:   0.160372   MPKI: 0.51929
DTLB PREFETCH  REQUESTED:          0  ISSUED:          0  USEFUL:          0  USELESS:          0
DTLB USEFUL LOAD PREFETCHES:          0 PREFETCH ISSUED TO LOWER LEVEL:          0  ACCURACY: -nan
DTLB TIMELY PREFETCHES:          0 LATE PREFETCHES: 0 DROPPED PREFETCHES: 0
DTLB COMMIT LATE PREFETCHES: 0 MISSED OPPORTUNITY: 0 LATE IN PQ: 0 UNCOVERED: 0
DTLB COMMIT LATE MSHR PREFETCHES: 0
DTLB MPKI TOTAL: 0 MSHR LATE: 0 PQ LATE: 0 COMMIT LATE: 0 MISSED OPPORTUNITY: 0 UNCOVERED: 0
DTLB PREFETCHES SAME FILL-ORIGIN LEVEL: 0 DIFFERENT FILL-ORIGIN LEVEL: 0
DTLB AVERAGE MISS LATENCY: 13.133 cycles
DTLB AVERAGE MISS LATENCY LOAD: -nan cycles
DTLB AVERAGE MISS LATENCY PREFETCH: -nan cycles
DTLB AVERAGE MSHR OCCUPANCY: 0.00154666
DTLB MSHR FULL: 0
DTLB RQ	ACCESS:   72966928	FORWARD:          0	MERGED:    8195876	TO_CACHE:   64771052

STLB SPEC fills:          0  NON-SPEC fills:          0
STLB Test counter :          0
STLB Leapfrog:          0
STLB MSHR merge:          0
STLB TOTAL     ACCESS:    5013271  HIT:    5007146  MISS:       6125  HIT %:    99.8778  MISS %:   0.122176   MPKI: 0.030625
STLB LOAD TRANSLATION NON_SPEC    ACCESS:     104020  HIT:     101314  MISS:       2706  HIT %:    97.3986  MISS %:    2.60142   MPKI: 0.01353
STLB TRANSLATION FROM L1D PREFETCHER NON_SPEC    ACCESS:    4909251  HIT:    4905832  MISS:       3419  HIT %:    99.9304  MISS %:   0.069644   MPKI: 0.017095
STLB PREFETCH  REQUESTED:          0  ISSUED:          0  USEFUL:       3400  USELESS:         12
STLB USEFUL LOAD PREFETCHES:       3400 PREFETCH ISSUED TO LOWER LEVEL:          0  ACCURACY: inf
STLB TIMELY PREFETCHES:       3400 LATE PREFETCHES: 859 DROPPED PREFETCHES: 26785
STLB COMMIT LATE PREFETCHES: 0 MISSED OPPORTUNITY: 0 LATE IN PQ: 0 UNCOVERED: 0
STLB COMMIT LATE MSHR PREFETCHES: 0
STLB MPKI TOTAL: 0 MSHR LATE: 0.004295 PQ LATE: 0 COMMIT LATE: 0 MISSED OPPORTUNITY: 0 UNCOVERED: 0
STLB PREFETCHES SAME FILL-ORIGIN LEVEL: 0 DIFFERENT FILL-ORIGIN LEVEL: 0
STLB AVERAGE MISS LATENCY: 145.31 cycles
STLB AVERAGE MISS LATENCY LOAD: -nan cycles
STLB AVERAGE MISS LATENCY PREFETCH: -nan cycles
STLB AVERAGE MSHR OCCUPANCY: 0.0195794
STLB MSHR FULL: 0
STLB RQ	ACCESS:   22418611	FORWARD:          0	MERGED:   17367437	TO_CACHE:    5051174

STLB Hit, L1D data hit: 0
STLB Hit, L2C data hit: 0
STLB Hit, LLC data hit: 0
STLB Hit, LLC data miss: 0
STLB STLB hints to L2: 0
L0D SPEC fills:   23319949  NON-SPEC fills:          0
L0D TimeGuard Request with older TS:     205342 Restricted eviction:     142234 read:     230755
L0D Test counter :          0
L0D Leapfrog:          0
L0D MSHR merge:     641610
L0D TOTAL     ACCESS:   46645658  HIT:    3325093  MISS:   43320565  HIT %:    7.12841  MISS %:    92.8716   MPKI: 216.603
L0D LOAD      TOTAL       ACCESS:   46645658  HIT:    3325093  MISS:   43320565  HIT %:    7.12841  MISS %:    92.8716   MPKI: 216.603
L0D LOAD      NON_SPEC    ACCESS:   20057012  HIT:     198630  MISS:   19858382  HIT %:   0.990327  MISS %:    99.0097   MPKI: 99.2919
L0D LOAD      SPEC        ACCESS:   26588646  HIT:    3126463  MISS:   23462183  HIT %:    11.7586  MISS %:    88.2414   MPKI: 117.311
L0D PREFETCH  REQUESTED:          0  ISSUED:          0  USEFUL:          0  USELESS:          0
L0D USEFUL LOAD PREFETCHES:          0 PREFETCH ISSUED TO LOWER LEVEL:          0  ACCURACY: -nan
L0D TIMELY PREFETCHES:          0 LATE PREFETCHES: 0 DROPPED PREFETCHES: 0
L0D COMMIT LATE PREFETCHES: 0 MISSED OPPORTUNITY: 0 LATE IN PQ: 0 UNCOVERED: 0
L0D COMMIT LATE MSHR PREFETCHES: 0
L0D MPKI TOTAL: 219.811 MSHR LATE: 0 PQ LATE: 0 COMMIT LATE: 0 MISSED OPPORTUNITY: 0 UNCOVERED: 0
L0D PREFETCHES SAME FILL-ORIGIN LEVEL: 0 DIFFERENT FILL-ORIGIN LEVEL: 0
L0D AVERAGE MISS LATENCY: 5.48971 cycles
L0D AVERAGE MISS LATENCY LOAD: 5.48971 cycles
L0D AVERAGE MISS LATENCY PREFETCH: -nan cycles
L0D AVERAGE MSHR OCCUPANCY: 0.664506
L0D MSHR FULL: 0.0148024
L0D RQ	ACCESS:   53937291	FORWARD:          0	MERGED:    6650026	TO_CACHE:   47287265
L0D WQ	ACCESS:   25679663	FORWARD:          0	MERGED:          0	TO_CACHE:   25679663

L1D SPEC fills:          0  NON-SPEC fills:     209394
L1D Test counter :      86050
L1D Leapfrog:          0
L1D MSHR merge:       8773
L1D TOTAL     ACCESS:   80357964  HIT:   78806672  MISS:    1551292  HIT %:    98.0695  MISS %:    1.93048   MPKI: 7.75646
L1D LOAD      TOTAL       ACCESS:   43319058  HIT:   42869432  MISS:     449626  HIT %:    98.9621  MISS %:    1.03794   MPKI: 2.24813
L1D LOAD      NON_SPEC    ACCESS:   19857459  HIT:   19648065  MISS:     209394  HIT %:    98.9455  MISS %:    1.05449   MPKI: 1.04697
L1D LOAD      SPEC        ACCESS:   23461599  HIT:   23221367  MISS:     240232  HIT %:    98.9761  MISS %:    1.02394   MPKI: 1.20116
L1D RFO       NON_SPEC    ACCESS:   24999393  HIT:   24877879  MISS:     121514  HIT %:    99.5139  MISS %:   0.486068   MPKI: 0.60757
L1D PREFETCH  NON_SPEC    ACCESS:   11579198  HIT:   10847758  MISS:     731440  HIT %:    93.6832  MISS %:    6.31685   MPKI: 3.6572
L1D COMMIT LOAD NON_SPEC    ACCESS:     218454  HIT:     200502  MISS:      17952  HIT %:    91.7823  MISS %:    8.21775   MPKI: 0.08976
L1D COMMIT WRITE NON_SPEC    ACCESS:     241861  HIT:      11101  MISS:     230760  HIT %:    4.58983  MISS %:    95.4102   MPKI: 1.1538
L1D PREFETCH  REQUESTED:   44939637  ISSUED:   31553180  USEFUL:     404258  USELESS:     326906
L1D USEFUL LOAD PREFETCHES:     404258 PREFETCH ISSUED TO LOWER LEVEL:   10153134  ACCURACY: 3.98161
L1D TIMELY PREFETCHES:     404258 LATE PREFETCHES: 8050 DROPPED PREFETCHES: 75974
L1D COMMIT LATE PREFETCHES: 0 MISSED OPPORTUNITY: 0 LATE IN PQ: 0 UNCOVERED: 0
L1D COMMIT LATE MSHR PREFETCHES: 0
L1D MPKI TOTAL: 2.25566 MSHR LATE: 0.04025 PQ LATE: 0 COMMIT LATE: 0 MISSED OPPORTUNITY: 0 UNCOVERED: 0
L1D PREFETCHES SAME FILL-ORIGIN LEVEL: 747656 DIFFERENT FILL-ORIGIN LEVEL: 9405478
L1D AVERAGE MISS LATENCY: 64.6924 cycles
L1D AVERAGE MISS LATENCY LOAD: 35.4195 cycles
L1D AVERAGE MISS LATENCY PREFETCH: 85.2949 cycles
L1D AVERAGE MSHR OCCUPANCY: 0.274928
L1D MSHR FULL: 0.00814206
L1D RQ	ACCESS:   43773657	FORWARD:          0	MERGED:     230264	TO_CACHE:   43539166
L1D WQ	ACCESS:   25921074	FORWARD:       4227	MERGED:     337306	TO_CACHE:   25583768
L1D PQ	ACCESS:   31553180	FORWARD:          0	MERGED:    9238589	TO_CACHE:   22314591

L1D UNIQUE REGIONS ACCESSED: 0
L1D REGIONS CONFLICTS: 0
L1D Cross Page Prefetch Requests: 2931173
L1D Same Page Prefetch Requests: 30123419
L1D ROI Sum of L1D PQ occupancy: 395872471
L1D PREFETCHES PUSHED FROM L2C: 0
L1I SPEC fills:          0  NON-SPEC fills:          0
L1I Test counter :          0
L1I Leapfrog:          0
L1I MSHR merge:       5495
L1I TOTAL     ACCESS:   40330311  HIT:   40314884  MISS:      15427  HIT %:    99.9617  MISS %:  0.0382516   MPKI: 0.077135
L1I LOAD      TOTAL       ACCESS:   40330311  HIT:   40314884  MISS:      15427  HIT %:    99.9617  MISS %:  0.0382516   MPKI: 0.077135
L1I LOAD      NON_SPEC    ACCESS:   40330311  HIT:   40314884  MISS:      15427  HIT %:    99.9617  MISS %:  0.0382516   MPKI: 0.077135
L1I PREFETCH  REQUESTED:          0  ISSUED:          0  USEFUL:          0  USELESS:          0
L1I USEFUL LOAD PREFETCHES:          0 PREFETCH ISSUED TO LOWER LEVEL:          0  ACCURACY: -nan
L1I TIMELY PREFETCHES:          0 LATE PREFETCHES: 0 DROPPED PREFETCHES: 0
L1I COMMIT LATE PREFETCHES: 0 MISSED OPPORTUNITY: 0 LATE IN PQ: 0 UNCOVERED: 0
L1I COMMIT LATE MSHR PREFETCHES: 0
L1I MPKI TOTAL: 0.10461 MSHR LATE: 0 PQ LATE: 0 COMMIT LATE: 0 MISSED OPPORTUNITY: 0 UNCOVERED: 0
L1I PREFETCHES SAME FILL-ORIGIN LEVEL: 0 DIFFERENT FILL-ORIGIN LEVEL: 0
L1I AVERAGE MISS LATENCY: 46.1249 cycles
L1I AVERAGE MISS LATENCY LOAD: 46.1249 cycles
L1I AVERAGE MISS LATENCY PREFETCH: -nan cycles
L1I AVERAGE MSHR OCCUPANCY: 0.000578617
L1I MSHR FULL: 0
L1I RQ	ACCESS:   57040259	FORWARD:          0	MERGED:   16704453	TO_CACHE:   40335806

BTB SPEC fills:          0  NON-SPEC fills:          0
BTB Test counter :          0
BTB Leapfrog:          0
BTB MSHR merge:          0
BTB TOTAL     ACCESS:   31329121  HIT:   29031204  MISS:    2297917  HIT %:    92.6652  MISS %:    7.33476   MPKI: 11.4896
BTB BRANCH_DIRECT_JUMP	ACCESS:    1094608  HIT:    1094408  MISS:        200
BTB BRANCH_INDIRECT	ACCESS:       6209  HIT:       4182  MISS:       2027
BTB BRANCH_CONDITIONAL	ACCESS:   18688882  HIT:   18687006  MISS:       1876
BTB BRANCH_DIRECT_CALL	ACCESS:    5769438  HIT:    5768610  MISS:        828
BTB BRANCH_INDIRECT_CALL	ACCESS:        272  HIT:        218  MISS:         54
BTB BRANCH_RETURN	ACCESS:    5769712  HIT:    3476780  MISS:    2292932
BTB BRANCH_OTHER ACCESS:          0  HIT:          0  MISS:          0

L2C SPEC fills:          0  NON-SPEC fills:       5965
L2C Test counter :      48265
L2C Leapfrog:          0
L2C MSHR merge:       7002
L2C TOTAL     ACCESS:    9192065  HIT:    8369117  MISS:     822948  HIT %:    91.0472  MISS %:    8.95281   MPKI: 4.11474
L2C LOAD      TOTAL       ACCESS:     457784  HIT:     404365  MISS:      53419  HIT %:     88.331  MISS %:     11.669   MPKI: 0.267095
L2C LOAD      NON_SPEC    ACCESS:     221938  HIT:     213405  MISS:       8533  HIT %:    96.1552  MISS %:    3.84477   MPKI: 0.042665
L2C LOAD      SPEC        ACCESS:     235846  HIT:     190960  MISS:      44886  HIT %:    80.9681  MISS %:    19.0319   MPKI: 0.22443
L2C RFO       NON_SPEC    ACCESS:     113765  HIT:      50444  MISS:      63321  HIT %:    44.3405  MISS %:    55.6595   MPKI: 0.316605
L2C PREFETCH  NON_SPEC    ACCESS:    7902832  HIT:    7239550  MISS:     663282  HIT %:     91.607  MISS %:    8.39297   MPKI: 3.31641
L2C WRITEBACK NON_SPEC    ACCESS:     445837  HIT:     445734  MISS:        103  HIT %:    99.9769  MISS %:  0.0231026   MPKI: 0.000515
L2C CLEAN_EVICTION NON_SPEC    ACCESS:      86050  HIT:      51756  MISS:      34294  HIT %:    60.1464  MISS %:    39.8536   MPKI: 0.17147
L2C COMMIT LOAD NON_SPEC    ACCESS:      17169  HIT:      10385  MISS:       6784  HIT %:    60.4869  MISS %:    39.5131   MPKI: 0.03392
L2C LOAD TRANSLATION NON_SPEC    ACCESS:      13313  HIT:      12623  MISS:        690  HIT %:    94.8171  MISS %:     5.1829   MPKI: 0.00345
L2C TRANSLATION FROM L1D PREFETCHER NON_SPEC    ACCESS:     155315  HIT:     154260  MISS:       1055  HIT %:    99.3207  MISS %:   0.679265   MPKI: 0.005275
L2C PREFETCH  REQUESTED:          0  ISSUED:          0  USEFUL:      37589  USELESS:     622104
L2C USEFUL LOAD PREFETCHES:      37589 PREFETCH ISSUED TO LOWER LEVEL:     672553  ACCURACY: 5.589
L2C TIMELY PREFETCHES:      37589 LATE PREFETCHES: 9266 DROPPED PREFETCHES: 0
L2C COMMIT LATE PREFETCHES: 0 MISSED OPPORTUNITY: 0 LATE IN PQ: 0 UNCOVERED: 0
L2C COMMIT LATE MSHR PREFETCHES: 0
L2C MPKI TOTAL: 0.267095 MSHR LATE: 0.04633 PQ LATE: 0 COMMIT LATE: 0 MISSED OPPORTUNITY: 0 UNCOVERED: 0
L2C PREFETCHES SAME FILL-ORIGIN LEVEL: 493897 DIFFERENT FILL-ORIGIN LEVEL: 0
L2C AVERAGE MISS LATENCY: 248.75 cycles
L2C AVERAGE MISS LATENCY LOAD: 177.544 cycles
L2C AVERAGE MISS LATENCY PREFETCH: 263.458 cycles
L2C AVERAGE MSHR OCCUPANCY: 2.71251
L2C MSHR FULL: 0.0175168
L2C RQ	ACCESS:     757365	FORWARD:          0	MERGED:          0	TO_CACHE:     757346
L2C WQ	ACCESS:     531888	FORWARD:         19	MERGED:          0	TO_CACHE:     531888
L2C PQ	ACCESS:   10135772	FORWARD:          0	MERGED:       5066	TO_CACHE:   10130706

L2C Instructions Evicting Data 2551
L2C Translations Evicting Data 1712
L2C Data Evicting Data 733339
L2C Instructions Evicting Instructions 11
L2C Translations Evicting Instructions 10
L2C Data Evicting Instructions 2762
L2C Instructions Evicting Translations 4
L2C Translations Evicting Translations 2
L2C Data Evicting Translations 1808
L2C Dense regions hint from L2: 0
PSCL5 SPEC fills:          0  NON-SPEC fills:          0
PSCL5 Test counter :          0
PSCL5 Leapfrog:          0
PSCL5 MSHR merge:          0
PSCL5 TOTAL     ACCESS:          0  HIT:          0  MISS:          0  HIT %:       -nan  MISS %:       -nan   MPKI: 0
PSCL5 PREFETCH  REQUESTED:          0  ISSUED:          0  USEFUL:          0  USELESS:          0
PSCL5 USEFUL LOAD PREFETCHES:          0 PREFETCH ISSUED TO LOWER LEVEL:          0  ACCURACY: -nan
PSCL5 TIMELY PREFETCHES:          0 LATE PREFETCHES: 0 DROPPED PREFETCHES: 0
PSCL5 COMMIT LATE PREFETCHES: 0 MISSED OPPORTUNITY: 0 LATE IN PQ: 0 UNCOVERED: 0
PSCL5 COMMIT LATE MSHR PREFETCHES: 0
PSCL5 MPKI TOTAL: 0 MSHR LATE: 0 PQ LATE: 0 COMMIT LATE: 0 MISSED OPPORTUNITY: 0 UNCOVERED: 0
PSCL5 PREFETCHES SAME FILL-ORIGIN LEVEL: 0 DIFFERENT FILL-ORIGIN LEVEL: 0

PSCL4 SPEC fills:          0  NON-SPEC fills:          0
PSCL4 Test counter :          0
PSCL4 Leapfrog:          0
PSCL4 MSHR merge:          0
PSCL4 TOTAL     ACCESS:          0  HIT:          0  MISS:          0  HIT %:       -nan  MISS %:       -nan   MPKI: 0
PSCL4 PREFETCH  REQUESTED:          0  ISSUED:          0  USEFUL:          0  USELESS:          0
PSCL4 USEFUL LOAD PREFETCHES:          0 PREFETCH ISSUED TO LOWER LEVEL:          0  ACCURACY: -nan
PSCL4 TIMELY PREFETCHES:          0 LATE PREFETCHES: 0 DROPPED PREFETCHES: 0
PSCL4 COMMIT LATE PREFETCHES: 0 MISSED OPPORTUNITY: 0 LATE IN PQ: 0 UNCOVERED: 0
PSCL4 COMMIT LATE MSHR PREFETCHES: 0
PSCL4 MPKI TOTAL: 0 MSHR LATE: 0 PQ LATE: 0 COMMIT LATE: 0 MISSED OPPORTUNITY: 0 UNCOVERED: 0
PSCL4 PREFETCHES SAME FILL-ORIGIN LEVEL: 0 DIFFERENT FILL-ORIGIN LEVEL: 0

PSCL3 SPEC fills:          0  NON-SPEC fills:          0
PSCL3 Test counter :          0
PSCL3 Leapfrog:          0
PSCL3 MSHR merge:          0
PSCL3 TOTAL     ACCESS:          0  HIT:          0  MISS:          0  HIT %:       -nan  MISS %:       -nan   MPKI: 0
PSCL3 PREFETCH  REQUESTED:          0  ISSUED:          0  USEFUL:          0  USELESS:          0
PSCL3 USEFUL LOAD PREFETCHES:          0 PREFETCH ISSUED TO LOWER LEVEL:          0  ACCURACY: -nan
PSCL3 TIMELY PREFETCHES:          0 LATE PREFETCHES: 0 DROPPED PREFETCHES: 0
PSCL3 COMMIT LATE PREFETCHES: 0 MISSED OPPORTUNITY: 0 LATE IN PQ: 0 UNCOVERED: 0
PSCL3 COMMIT LATE MSHR PREFETCHES: 0
PSCL3 MPKI TOTAL: 0 MSHR LATE: 0 PQ LATE: 0 COMMIT LATE: 0 MISSED OPPORTUNITY: 0 UNCOVERED: 0
PSCL3 PREFETCHES SAME FILL-ORIGIN LEVEL: 0 DIFFERENT FILL-ORIGIN LEVEL: 0

PSCL2 SPEC fills:          0  NON-SPEC fills:          0
PSCL2 Test counter :          0
PSCL2 Leapfrog:          0
PSCL2 MSHR merge:          0
PSCL2 TOTAL     ACCESS:          0  HIT:          0  MISS:          0  HIT %:       -nan  MISS %:       -nan   MPKI: 0
PSCL2 PREFETCH  REQUESTED:          0  ISSUED:          0  USEFUL:          0  USELESS:          0
PSCL2 USEFUL LOAD PREFETCHES:          0 PREFETCH ISSUED TO LOWER LEVEL:          0  ACCURACY: -nan
PSCL2 TIMELY PREFETCHES:          0 LATE PREFETCHES: 0 DROPPED PREFETCHES: 0
PSCL2 COMMIT LATE PREFETCHES: 0 MISSED OPPORTUNITY: 0 LATE IN PQ: 0 UNCOVERED: 0
PSCL2 COMMIT LATE MSHR PREFETCHES: 0
PSCL2 MPKI TOTAL: 0 MSHR LATE: 0 PQ LATE: 0 COMMIT LATE: 0 MISSED OPPORTUNITY: 0 UNCOVERED: 0
PSCL2 PREFETCHES SAME FILL-ORIGIN LEVEL: 0 DIFFERENT FILL-ORIGIN LEVEL: 0

LLC SPEC fills:          0  NON-SPEC fills:       3692
LLC Test counter :      44789
LLC Leapfrog:          0
LLC MSHR merge:          0
LLC TOTAL     ACCESS:    1202303  HIT:     408057  MISS:     794246  HIT %:    33.9396  MISS %:    66.0604   MPKI: 3.97123
LLC LOAD      TOTAL       ACCESS:      46417  HIT:       5940  MISS:      40477  HIT %:     12.797  MISS %:     87.203   MPKI: 0.202385
LLC LOAD      NON_SPEC    ACCESS:       8439  HIT:       2211  MISS:       6228  HIT %:    26.1998  MISS %:    73.8002   MPKI: 0.03114
LLC LOAD      SPEC        ACCESS:      37978  HIT:       3729  MISS:      34249  HIT %:    9.81884  MISS %:    90.1812   MPKI: 0.171245
LLC RFO       NON_SPEC    ACCESS:      62198  HIT:       3542  MISS:      58656  HIT %:    5.69472  MISS %:    94.3053   MPKI: 0.29328
LLC PREFETCH  NON_SPEC    ACCESS:     672548  HIT:      11663  MISS:     660885  HIT %:    1.73415  MISS %:    98.2658   MPKI: 3.30443
LLC WRITEBACK NON_SPEC    ACCESS:     365487  HIT:     365416  MISS:         71  HIT %:    99.9806  MISS %:  0.0194261   MPKI: 0.000355
LLC CLEAN_EVICTION NON_SPEC    ACCESS:      48265  HIT:      20404  MISS:      27861  HIT %:    42.2749  MISS %:    57.7251   MPKI: 0.139305
LLC COMMIT LOAD NON_SPEC    ACCESS:       5643  HIT:        837  MISS:       4806  HIT %:    14.8325  MISS %:    85.1675   MPKI: 0.02403
LLC LOAD TRANSLATION NON_SPEC    ACCESS:        690  HIT:        173  MISS:        517  HIT %:    25.0725  MISS %:    74.9275   MPKI: 0.002585
LLC TRANSLATION FROM L1D PREFETCHER NON_SPEC    ACCESS:       1055  HIT:         82  MISS:        973  HIT %:    7.77251  MISS %:    92.2275   MPKI: 0.004865
LLC PREFETCH  REQUESTED:          0  ISSUED:          0  USEFUL:       3266  USELESS:     632501
LLC USEFUL LOAD PREFETCHES:       3266 PREFETCH ISSUED TO LOWER LEVEL:     660889  ACCURACY: 0.494183
LLC TIMELY PREFETCHES:       3266 LATE PREFETCHES: 0 DROPPED PREFETCHES: 0
LLC COMMIT LATE PREFETCHES: 0 MISSED OPPORTUNITY: 0 LATE IN PQ: 0 UNCOVERED: 0
LLC COMMIT LATE MSHR PREFETCHES: 0
LLC MPKI TOTAL: 0.202385 MSHR LATE: 0 PQ LATE: 0 COMMIT LATE: 0 MISSED OPPORTUNITY: 0 UNCOVERED: 0
LLC PREFETCHES SAME FILL-ORIGIN LEVEL: 0 DIFFERENT FILL-ORIGIN LEVEL: 0
LLC AVERAGE MISS LATENCY: 229.411 cycles
LLC AVERAGE MISS LATENCY LOAD: 173.033 cycles
LLC AVERAGE MISS LATENCY PREFETCH: 237.926 cycles
LLC AVERAGE MSHR OCCUPANCY: 6.89868
LLC MSHR FULL: 0
LLC RQ	ACCESS:     116003	FORWARD:          0	MERGED:          0	TO_CACHE:     116003
LLC WQ	ACCESS:     413752	FORWARD:          0	MERGED:          0	TO_CACHE:     413752
LLC PQ	ACCESS:     672553	FORWARD:          0	MERGED:          0	TO_CACHE:     672553

LLC Dense regions hint to LLC: 0

RAW hits: 1493024
Loads Generated: 55430316
Loads sent to L1D: 53937291
Stores Generated: 25679661
Stores sent to L1D: 25679663
Major fault: 0 Minor fault: 2275
Allocated PAGES: 2275
Total Load insts: 65740052
Total Non-spec loads: 22204836
Percentage of speculative loads: 66.2233

LeapFrogging counter: 123941
Commit hits: 23187204 miss: 10663639
Commit hit %: 68.4982 miss %: 31.5018
Commits not translated: 0
Loads retired: 449626
Stores retired: 25679663
Cache fills: 449626
L1D response latency: 35.4195 cycles
Load retirement latency: 74.5318 cycles
OOO test counter: 0
Discarded buffer inserts: 23187204 hits: 32945 hit %: 0.142083
Filter prediction accuracy: 99.9679
ALL MISSES SIZE: 2312
LATENCY_FILL: 34.9031 450877
LATENCY_FILL_ROB: 61.7868 450662
test counter pref: 4891588
Max ROB Extended: 15

DRAM Statistics
 CHANNEL 0
 RQ ROW_BUFFER_HIT:     152617  ROW_BUFFER_MISS:     613682
 DBUS_CONGESTED:        129
 WQ ROW_BUFFER_HIT:      75685  ROW_BUFFER_MISS:     319545  FULL:        103

 AVG_CONGESTED_CYCLE: 5
 All warmup complete: 2
Channel 0 Bank busy for read cycles: 0
Channel 0 Bank busy for write cycles: 0
Channel 0
Rank 0
0banks busy for read cycles: 489738860
0banks busy for write cycles: 2076
1banks busy for read cycles: 3764055
1banks busy for write cycles: 361250
2banks busy for read cycles: 7178227
2banks busy for write cycles: 214322
3banks busy for read cycles: 8064069
3banks busy for write cycles: 168100
4banks busy for read cycles: 3815916
4banks busy for write cycles: 149369
5banks busy for read cycles: 3232600
5banks busy for write cycles: 145382
6banks busy for read cycles: 1915067
6banks busy for write cycles: 171216
7banks busy for read cycles: 977832
7banks busy for write cycles: 607239
8banks busy for read cycles: 1483223
8banks busy for write cycles: 8178918

CPU 0 Branch Prediction Accuracy: 93.3169% MPKI: 11.1129 Average ROB Occupancy at Mispredict: 21.8745
Branch types
NOT_BRANCH: 166743420 83.3717%
BRANCH_DIRECT_JUMP: 1094608 0.547304%
BRANCH_INDIRECT: 6209 0.0031045%
BRANCH_CONDITIONAL: 20616346 10.3082%
BRANCH_DIRECT_CALL: 5769438 2.88472%
BRANCH_INDIRECT_CALL: 272 0.000136%
BRANCH_RETURN: 5769712 2.88486%
BRANCH_OTHER: 0 0%

DRAM PAGES: 1048576
Allocated PAGES: 2275
